..\..\output\output.ss\output__sdhp_ss.ss_zbud_lays ZBLST CSV CSV2
..\..\output\output.ss\output__sdhp_ss.cbb
Steady-State South Dakota High Plains MODFLOW-NWT Model Layer Budgets
.\sdhp_ss.zbud_lays.zon
a
