# MODFLOW2000 Well Package
OPTIONS
SPECIFY 2.000000e-001
END
 208 0   AUX IFACE
 208 0               Stress Period 1
 1 142 366 -12960.000000 0  
 1 144 362 -8069.760000 0  
 1 148 358 -8069.760000 0  
 1 148 360 -8069.760000 0  
 1 149 362 -8069.760000 0  
 1 150 358 -8069.760000 0  
 1 153 360 -8069.760000 0  
 1 153 363 -8069.760000 0  
 1 153 365 -15698.880000 0  
 1 153 368 -16899.840000 0  
 1 154 378 -14264.640000 0  
 1 155 350 -8069.760000 0  
 1 155 363 -8069.760000 0  
 1 155 366 -8069.760000 0  
 1 155 368 -13806.720000 0  
 1 155 374 -8069.760000 0  
 1 156 377 -8069.760000 0  
 1 156 381 -16450.560000 0  
 1 156 382 -16450.560000 0  
 1 157 368 -8069.760000 0  
 1 157 369 -13806.720000 0  
 1 157 371 -8069.760000 0  
 1 157 379 -24451.200000 0  
 1 158 360 -8069.760000 0  
 1 158 361 -17089.920000 0  
 1 158 363 -8069.760000 0  
 1 158 365 -8069.760000 0  
 1 158 366 -13538.880000 0  
 1 158 368 -13538.880000 0  
 1 158 374 -8069.760000 0  
 1 158 377 -17012.160000 0  
 1 159 369 -8069.760000 0  
 1 160 360 -17089.920000 0  
 1 160 361 -17089.920000 0  
 1 160 363 -13884.480000 0  
 1 160 364 -13538.880000 0  
 1 160 366 -13538.880000 0  
 1 160 368 -13538.880000 0  
 1 160 377 -8069.760000 0  
 1 160 379 -17003.520000 0  
 1 160 386 -8069.760000 0  
 1 161 352 -8069.760000 0  
 1 161 360 -17089.920000 0  
 1 161 363 -8069.760000 0  
 1 161 374 -8069.760000 0  
 1 162 361 -17089.920000 0  
 1 162 377 -8069.760000 0  
 1 162 384 -8069.760000 0  
 1 163 351 -8069.760000 0  
 1 163 353 -12312.000000 0  
 1 163 355 -8069.760000 0  
 1 163 356 -8069.760000 0  
 1 163 358 -8069.760000 0  
 1 163 360 -8069.760000 0  
 1 163 361 -8069.760000 0  
 1 163 363 -8069.760000 0  
 1 163 365 -17089.920000 0  
 1 163 374 -8069.760000 0  
 1 163 382 -18282.240000 0  
 1 164 384 -8069.760000 0  
 1 165 348 -10791.360000 0  
 1 165 352 -13789.440000 0  
 1 165 366 -8069.760000 0  
 1 165 371 -10126.080000 0  
 1 165 384 -15024.960000 0  
 1 166 364 -17089.920000 0  
 1 167 352 -13824.000000 0  
 1 167 355 -9642.240000 0  
 1 167 361 -8069.760000 0  
 1 167 369 -10126.080000 0  
 1 167 371 -8069.760000 0  
 1 168 358 -8069.760000 0  
 1 169 357 -8069.760000 0  
 1 169 371 -6445.440000 0  
 1 169 379 -8069.760000 0  
 1 170 331 -8069.760000 0  
 1 170 333 -8069.760000 0  
 1 170 360 -13392.000000 0  
 1 171 331 -8069.760000 0  
 1 172 360 -12130.560000 0  
 1 172 369 -8069.760000 0  
 1 173 328 -8069.760000 0  
 1 173 352 -8069.760000 0  
 1 173 366 -8069.760000 0  
 1 174 368 -8069.760000 0  
 1 174 370 -8069.760000 0  
 1 175 361 -8069.760000 0  
 1 175 368 -8069.760000 0  
 1 177 315 -8069.760000 0  
 1 177 317 -8069.760000 0  
 1 177 361 -8069.760000 0  
 1 180 350 -9858.240000 0  
 1 182 348 -8069.760000 0  
 1 182 350 -11119.680000 0  
 2 138 374 -1831.680000 0  
 2 140 376 -1831.680000 0  
 2 141 376 -1831.680000 0  
 1 130 457 -427.680000 0  
 1 131 508 -4545.504000 0  
 1 131 508 -427.680000 0  
 1 134 509 -33474.816000 0  
 1 135 471 -8502.624000 0  
 1 135 509 -23910.336000 0  
 1 135 509 -9564.480000 0  
 1 136 503 -4782.240000 0  
 1 136 504 -4782.240000 0  
 1 136 504 -4782.240000 0  
 1 137 505 -4782.240000 0  
 1 138 505 -4782.240000 0  
 1 138 524 -4545.504000 0  
 1 140 504 -8021.376000 0  
 1 141 506 -40104.288000 0  
 1 141 518 -757.728000 0  
 1 141 519 -757.728000 0  
 1 142 491 -3823.200000 0  
 1 142 502 -40104.288000 0  
 1 142 503 -40104.288000 0  
 1 142 506 -40104.288000 0  
 1 142 576 -96.768000 0  
 1 143 491 -3823.200000 0  
 1 144 501 -40104.288000 0  
 1 145 494 -7754.400000 0  
 1 146 498 -5935.680000 0  
 1 147 586 -9587.808000 0  
 1 147 587 -12783.744000 0  
 1 151 588 -6391.872000 0  
 1 152 593 -18.144000 0  
 1 154 590 -18.144000 0  
 1 154 591 -18.144000 0  
 1 155 596 -3011.904000 0  
 1 155 597 -2674.080000 0  
 1 155 599 -3011.904000 0  
 1 156 596 -3011.904000 0  
 1 156 597 -1336.608000 0  
 1 156 600 -3011.904000 0  
 1 163 473 -10534.752000 0  
 1 170 616 -935.712000 0  
 1 170 616 -935.712000 0  
 1 176 653 -2647.296000 0  
 1 178 658 -18117.216000 0  
 1 179 658 -2647.296000 0  
 1 179 658 -3623.616000 0  
 1 180 658 -518.400000 0  
 1 181 655 -7247.232000 0  
 1 182 655 -3623.616000 0  
 1 192 454 -21657.888000 0  
 1 195 504 -7112.448000 0  
 1 195 505 -8556.192000 0  
 1 155 283 -34629.120000 0  
 1 162 282 -29272.320000 0  
 1 161 245 -6367.680000 0  
 1 133 246 -7369.920000 0  
 2 175 262 -22161.600000 0  
 2 164 194 -16822.080000 0  
 2 163 199 -27864.000000 0  
 2 166 199 -17331.840000 0  
 2 161 201 -32296.320000 0  
 2 152 281 -24243.840000 0  
 2 150 279 -52323.840000 0  
 2 159 281 -8691.840000 0  
 2 152 246 -8691.840000 0  
 2 133 244 -22680.000000 0  
 2 133 249 -7594.560000 0  
 2 133 238 -10696.320000 0  
 2 177 69 -8622.720000 0  
 2 178 64 -8622.720000 0  
 2 178 66 -8622.720000 0  
 2 177 66 -8605.440000 0  
 2 179 64 -19569.600000 0  
 2 166 63 -2272.320000 0  
 2 166 63 -2272.320000 0  
 2 156 54 -2669.760000 0  
 2 156 54 -2669.760000 0  
 2 156 54 -2669.760000 0  
 2 155 52 -2669.760000 0  
 2 155 52 -2669.760000 0  
 2 174 83 -2177.280000 0  
 2 181 86 -1088.640000 0  
 2 152 98 -3162.240000 0  
 2 152 98 -3162.240000 0  
 2 133 83 -2177.280000 0  
 2 132 103 -2177.280000 0  
 2 130 104 -1088.640000 0  
 2 131 105 -1088.640000 0  
 2 132 106 -11551.680000 0  
 2 177 134 -276.480000 0  
 2 158 142 -1175.040000 0  
 2 126 171 -1088.640000 0  
 2 127 174 -4570.560000 0  
 2 98 96 -1088.640000 0  
 2 92 133 -1840.320000 0  
 2 92 133 -1840.320000 0  
 2 92 133 -1840.320000 0  
 2 92 133 -1840.320000 0  
 2 93 133 -1840.320000 0  
 2 69 163 -2177.280000 0  
 2 63 217 -2617.920000 0  
 2 63 217 -2626.560000 0  
 2 63 217 -2626.560000 0  
 2 61 217 -1088.640000 0  
 2 60 234 -2177.280000 0  
 2 162 61 -181.440000 0  
 2 114 99 -2177.280000 0  
 2 176 67 -2177.280000 0  
 2 178 69 -1088.640000 0  
 2 178 69 -1088.640000 0  
 2 149 200 -5823.360000 0  
 2 149 203 -5823.360000 0  
