# MODFLOW2005 Basic Package
#MODFLOW Data Set Created by Groundwater Vistas
#   
FREE SHOWPROGRESS CONVERGE
OPEN/CLOSE   ..\external_files\ibound\ib1.dat    1   (FREE)     -1    Layer 1 IBOUND 
OPEN/CLOSE   ..\external_files\ibound\ib2.dat    1   (FREE)     -1    Layer 2 IBOUND
OPEN/CLOSE   ..\external_files\ibound\ib3.dat    1   (FREE)     -1    Layer 3 IBOUND
-9999.000000
   OPEN/CLOSE   ..\external_files\ic\l1_strt.dat    1   (FREE)     -1    Strt hd, layer 1
   OPEN/CLOSE   ..\external_files\ic\l2_strt.dat    1   (FREE)     -1    Strt hd, layer 2
   OPEN/CLOSE   ..\external_files\ic\l3_strt.dat    1   (FREE)     -1    Strt hd, layer 3
      
