# MODFLOW2000 Discretization File
 3  259  743  1  4  1
 0 0 0
CONSTANT    1640.4                                 Item 3  DELR
CONSTANT    1640.4                                 Item 4  DELC 
OPEN/CLOSE   ..\external_files\surfs\l1_top.dat   1.0   (FREE)   -1          Item 5: TOP   (top of model layer 1) 
OPEN/CLOSE   ..\external_files\surfs\l1_bot.dat   1.0   (FREE)   -1          Item 5: Botm  (bottom of model layer 1)
OPEN/CLOSE   ..\external_files\surfs\l2_bot.dat   1.0   (FREE)   -1          Item 5: Botm  (bottom of model layer 2)
OPEN/CLOSE   ..\external_files\surfs\l3_bot.dat   1.0   (FREE)   -1          Item 5: Botm  (bottom of model layer 3)
  1.000000  1  1.200000  SS
