# MODFLOW2000 Evapotranspiration Package
PARAMETER  0
 3 50
 1 1 1 1
	OPEN/CLOSE   ..\external_files\evt\et_surf.dat   1.0000   (FREE)   -1     	ET SURFACE
	OPEN/CLOSE   ..\external_files\evt\ss_evt.dat    0.6000   (FREE)   -1		ET RATE
	CONSTANT     15.0000						EXT. DEPTH