..\..\output\output.ss\output__sdhp_ss.ss_zbud_modl ZBLST CSV CSV2
..\..\output\output.ss\output__sdhp_ss.cbb
Steady-State South Dakota High Plains MODFLOW-NWT Model Budget
.\sdhp_ss.zbud_modl.zon
a
