# Name File for MODFLOW created on 1/23/2017 by ModelMuse Version 3.8.1.25
LIST             11 .\sfr4test_single_line_options\sfrtest4.lst REPLACE
DATA(BINARY)      9 .\sfr4test_single_line_options\sfrtest4.cbc REPLACE
DIS              12 .\sfr4test_single_line_options\sfrtest4.dis OLD
BAS6             13 .\sfr4test_single_line_options\sfrtest4.bas OLD
OC               39 .\sfr4test_single_line_options\sfrtest4.oc OLD
DATA             37 .\sfr4test_single_line_options\sfrtest4.fhd REPLACE
DATA             38 .\sfr4test_single_line_options\sfrtest4.fdn REPLACE
PCG              18 .\sfr4test_single_line_options\sfrtest4.pcg OLD
LPF              14 .\sfr4test_single_line_options\sfrtest4.lpf OLD
CHD              17 .\sfr4test_single_line_options\sfrtest4.chd OLD
SFR              29 .\sfr4test_single_line_options\sfrtest4.sfr OLD
