# MF2K-MT3DMS LINKER FILE
#
OUTPUT_FILE_NAME test102.hff
OUTPUT_FILE_UNIT
OUTPUT_FILE_HEADER standard
OUTPUT_FILE_FORMAT unformatted
