# NWT Input File
# SWI2 example problem 4 for MODFLOW-NWT
#HEADTOL  FLUXTOL MAXITEROUT THICKFACT LINMETH IPRNWT IBOTAV OPTIONS DBDREDUCE DBDINCREASE DBDGAMMA MOMFACT BACKFLAG MAXBACKITER BACKTOL BACKREDUCE
1.0E-5 0.05 100 1.0e-6  2  1 1 SIMPLE CONTINUE
2 0 3 2 0 0.0 1 1.0E-6 1.0e-6  50   XMD
