# MODFLOW2005 UZF Input File 
#CONSTANT     0.15              1.000 (FREE)       1     #THTI after THTS
#NUZTOP IUZFOPT IRUNFLG IETFLG IUZCB1 IUZFCB2 [NTRAIL2 NSETS2] NUZGAG SURFDEP
      1       2       1      1     0        0       20     20       0    0.50
INTERNAL     1        (FREE)     -1                     #IUZFBND
0 1 1 1 1 1
0 1 1 1 1 1
0 1 1 1 0 1
0 1 1 1 0 1
0 1 1 1 1 1
0 1 1 1 1 1
INTERNAL     1        (FREE)     -1                     #IRUNBND
 000000 100007 100008 100014 100015 100015
 000000 100007 100008 100014 100015 100015
 000000 100011 100011 100014 000000 100016
 000000 100009 100010 100014 000000 100018
 000000 100009 100010 100017 100017 100018
 000000 100009 100010 100019 100019 100018
CONSTANT     3.500             1.000 (FREE)      -1     #EPS
CONSTANT     0.25              1.000 (FREE)       1     #THTS
CONSTANT     0.15              1.000 (FREE)       1     #THTI after THTS
1                                                       #NUZF1
OPEN/CLOSE .\SWR_data_files\SWRSample05\ref\Rainfall_001.ref 1.00 (FREE)   -1          #FINF  STRESS PERIOD 001
1                                                       #NUZF2
CONSTANT  2.6249E-03  1.000 (FREE)                1     #PET
1                                                       #NUZF3
CONSTANT 0.25 1.000  (FREE)                       1     #ET Ext Depth
1                                                       #NUZF4
CONSTANT 0.05 1.000 (FREE)                        1     #Ext Water Content	
1                                                        #NUZF1 STRESS PERIOD 002
OPEN/CLOSE .\SWR_data_files\SWRSample05\ref\Rainfall_002.ref 1.0 (FREE)   -1          #FINF  STRESS PERIOD 002
-1                                                       #NUZF2 STRESS PERIOD 002
-1                                                       #NUZF3 STRESS PERIOD 002
-1                                                       #NUZF4 STRESS PERIOD 002
1                                                        #NUZF1 STRESS PERIOD 003
OPEN/CLOSE .\SWR_data_files\SWRSample05\ref\Rainfall_003.ref 1.0 (FREE)   -1          #FINF  STRESS PERIOD 003
-1                                                       #NUZF2 STRESS PERIOD 003
-1                                                       #NUZF3 STRESS PERIOD 003
-1                                                       #NUZF4 STRESS PERIOD 003
1                                                        #NUZF1 STRESS PERIOD 004
OPEN/CLOSE .\SWR_data_files\SWRSample05\ref\Rainfall_004.ref 1.0 (FREE)   -1          #FINF  STRESS PERIOD 004
-1                                                       #NUZF2 STRESS PERIOD 004
-1                                                       #NUZF3 STRESS PERIOD 004
-1                                                       #NUZF4 STRESS PERIOD 004
1                                                        #NUZF1 STRESS PERIOD 005
OPEN/CLOSE .\SWR_data_files\SWRSample05\ref\Rainfall_005.ref 1.0 (FREE)   -1          #FINF  STRESS PERIOD 005
-1                                                       #NUZF2 STRESS PERIOD 005
-1                                                       #NUZF3 STRESS PERIOD 005
-1                                                       #NUZF4 STRESS PERIOD 005
1                                                        #NUZF1 STRESS PERIOD 006
OPEN/CLOSE .\SWR_data_files\SWRSample05\ref\Rainfall_006.ref 1.0 (FREE)   -1          #FINF  STRESS PERIOD 006
-1                                                       #NUZF2 STRESS PERIOD 006
-1                                                       #NUZF3 STRESS PERIOD 006
-1                                                       #NUZF4 STRESS PERIOD 006
1                                                        #NUZF1 STRESS PERIOD 007
OPEN/CLOSE .\SWR_data_files\SWRSample05\ref\Rainfall_007.ref 1.0 (FREE)   -1          #FINF  STRESS PERIOD 007
-1                                                       #NUZF2 STRESS PERIOD 007
-1                                                       #NUZF3 STRESS PERIOD 007
-1                                                       #NUZF4 STRESS PERIOD 007
1                                                        #NUZF1 STRESS PERIOD 008
OPEN/CLOSE .\SWR_data_files\SWRSample05\ref\Rainfall_008.ref 1.0 (FREE)   -1          #FINF  STRESS PERIOD 008
-1                                                       #NUZF2 STRESS PERIOD 008
-1                                                       #NUZF3 STRESS PERIOD 008
-1                                                       #NUZF4 STRESS PERIOD 008
1                                                        #NUZF1 STRESS PERIOD 009
OPEN/CLOSE .\SWR_data_files\SWRSample05\ref\Rainfall_009.ref 1.0 (FREE)   -1          #FINF  STRESS PERIOD 009
-1                                                       #NUZF2 STRESS PERIOD 009
-1                                                       #NUZF3 STRESS PERIOD 009
-1                                                       #NUZF4 STRESS PERIOD 009
1                                                        #NUZF1 STRESS PERIOD 010
OPEN/CLOSE .\SWR_data_files\SWRSample05\ref\Rainfall_010.ref 1.0 (FREE)   -1          #FINF  STRESS PERIOD 010
-1                                                       #NUZF2 STRESS PERIOD 010
-1                                                       #NUZF3 STRESS PERIOD 010
-1                                                       #NUZF4 STRESS PERIOD 010
1                                                        #NUZF1 STRESS PERIOD 011
OPEN/CLOSE .\SWR_data_files\SWRSample05\ref\Rainfall_011.ref 1.0 (FREE)   -1          #FINF  STRESS PERIOD 011
-1                                                       #NUZF2 STRESS PERIOD 011
-1                                                       #NUZF3 STRESS PERIOD 011
-1                                                       #NUZF4 STRESS PERIOD 011
1                                                        #NUZF1 STRESS PERIOD 012
OPEN/CLOSE .\SWR_data_files\SWRSample05\ref\Rainfall_012.ref 1.0 (FREE)   -1          #FINF  STRESS PERIOD 012
-1                                                       #NUZF2 STRESS PERIOD 012
-1                                                       #NUZF3 STRESS PERIOD 012
-1                                                       #NUZF4 STRESS PERIOD 012
1                                                        #NUZF1 STRESS PERIOD 013
OPEN/CLOSE .\SWR_data_files\SWRSample05\ref\Rainfall_013.ref 1.0 (FREE)   -1          #FINF  STRESS PERIOD 013
-1                                                       #NUZF2 STRESS PERIOD 013
-1                                                       #NUZF3 STRESS PERIOD 013
-1                                                       #NUZF4 STRESS PERIOD 013
1                                                        #NUZF1 STRESS PERIOD 014
OPEN/CLOSE .\SWR_data_files\SWRSample05\ref\Rainfall_014.ref 1.0 (FREE)   -1          #FINF  STRESS PERIOD 014
-1                                                       #NUZF2 STRESS PERIOD 014
-1                                                       #NUZF3 STRESS PERIOD 014
-1                                                       #NUZF4 STRESS PERIOD 014
1                                                        #NUZF1 STRESS PERIOD 015
OPEN/CLOSE .\SWR_data_files\SWRSample05\ref\Rainfall_015.ref 1.0 (FREE)   -1          #FINF  STRESS PERIOD 015
-1                                                       #NUZF2 STRESS PERIOD 015
-1                                                       #NUZF3 STRESS PERIOD 015
-1                                                       #NUZF4 STRESS PERIOD 015
1                                                        #NUZF1 STRESS PERIOD 016
OPEN/CLOSE .\SWR_data_files\SWRSample05\ref\Rainfall_016.ref 1.0 (FREE)   -1          #FINF  STRESS PERIOD 016
-1                                                       #NUZF2 STRESS PERIOD 016
-1                                                       #NUZF3 STRESS PERIOD 016
-1                                                       #NUZF4 STRESS PERIOD 016
1                                                        #NUZF1 STRESS PERIOD 017
OPEN/CLOSE .\SWR_data_files\SWRSample05\ref\Rainfall_017.ref 1.0 (FREE)   -1          #FINF  STRESS PERIOD 017
-1                                                       #NUZF2 STRESS PERIOD 017
-1                                                       #NUZF3 STRESS PERIOD 017
-1                                                       #NUZF4 STRESS PERIOD 017
1                                                        #NUZF1 STRESS PERIOD 018
OPEN/CLOSE .\SWR_data_files\SWRSample05\ref\Rainfall_018.ref 1.0 (FREE)   -1          #FINF  STRESS PERIOD 018
-1                                                       #NUZF2 STRESS PERIOD 018
-1                                                       #NUZF3 STRESS PERIOD 018
-1                                                       #NUZF4 STRESS PERIOD 018
1                                                        #NUZF1 STRESS PERIOD 019
OPEN/CLOSE .\SWR_data_files\SWRSample05\ref\Rainfall_019.ref 1.0 (FREE)   -1          #FINF  STRESS PERIOD 019
-1                                                       #NUZF2 STRESS PERIOD 019
-1                                                       #NUZF3 STRESS PERIOD 019
-1                                                       #NUZF4 STRESS PERIOD 019
1                                                        #NUZF1 STRESS PERIOD 020
OPEN/CLOSE .\SWR_data_files\SWRSample05\ref\Rainfall_020.ref 1.0 (FREE)   -1          #FINF  STRESS PERIOD 020
-1                                                       #NUZF2 STRESS PERIOD 020
-1                                                       #NUZF3 STRESS PERIOD 020
-1                                                       #NUZF4 STRESS PERIOD 020
1                                                        #NUZF1 STRESS PERIOD 021
OPEN/CLOSE .\SWR_data_files\SWRSample05\ref\Rainfall_021.ref 1.0 (FREE)   -1          #FINF  STRESS PERIOD 021
-1                                                       #NUZF2 STRESS PERIOD 021
-1                                                       #NUZF3 STRESS PERIOD 021
-1                                                       #NUZF4 STRESS PERIOD 021
1                                                        #NUZF1 STRESS PERIOD 022
OPEN/CLOSE .\SWR_data_files\SWRSample05\ref\Rainfall_022.ref 1.0 (FREE)   -1          #FINF  STRESS PERIOD 022
-1                                                       #NUZF2 STRESS PERIOD 022
-1                                                       #NUZF3 STRESS PERIOD 022
-1                                                       #NUZF4 STRESS PERIOD 022
1                                                        #NUZF1 STRESS PERIOD 023
OPEN/CLOSE .\SWR_data_files\SWRSample05\ref\Rainfall_023.ref 1.0 (FREE)   -1          #FINF  STRESS PERIOD 023
-1                                                       #NUZF2 STRESS PERIOD 023
-1                                                       #NUZF3 STRESS PERIOD 023
-1                                                       #NUZF4 STRESS PERIOD 023
1                                                        #NUZF1 STRESS PERIOD 024
OPEN/CLOSE .\SWR_data_files\SWRSample05\ref\Rainfall_024.ref 1.0 (FREE)   -1          #FINF  STRESS PERIOD 024
-1                                                       #NUZF2 STRESS PERIOD 024
-1                                                       #NUZF3 STRESS PERIOD 024
-1                                                       #NUZF4 STRESS PERIOD 024
1                                                        #NUZF1 STRESS PERIOD 025
OPEN/CLOSE .\SWR_data_files\SWRSample05\ref\Rainfall_025.ref 1.0 (FREE)   -1          #FINF  STRESS PERIOD 025
-1                                                       #NUZF2 STRESS PERIOD 025
-1                                                       #NUZF3 STRESS PERIOD 025
-1                                                       #NUZF4 STRESS PERIOD 025
1                                                        #NUZF1 STRESS PERIOD 026
OPEN/CLOSE .\SWR_data_files\SWRSample05\ref\Rainfall_026.ref 1.0 (FREE)   -1          #FINF  STRESS PERIOD 026
-1                                                       #NUZF2 STRESS PERIOD 026
-1                                                       #NUZF3 STRESS PERIOD 026
-1                                                       #NUZF4 STRESS PERIOD 026
1                                                        #NUZF1 STRESS PERIOD 027
OPEN/CLOSE .\SWR_data_files\SWRSample05\ref\Rainfall_027.ref 1.0 (FREE)   -1          #FINF  STRESS PERIOD 027
-1                                                       #NUZF2 STRESS PERIOD 027
-1                                                       #NUZF3 STRESS PERIOD 027
-1                                                       #NUZF4 STRESS PERIOD 027
1                                                        #NUZF1 STRESS PERIOD 028
OPEN/CLOSE .\SWR_data_files\SWRSample05\ref\Rainfall_028.ref 1.0 (FREE)   -1          #FINF  STRESS PERIOD 028
-1                                                       #NUZF2 STRESS PERIOD 028
-1                                                       #NUZF3 STRESS PERIOD 028
-1                                                       #NUZF4 STRESS PERIOD 028
1                                                        #NUZF1 STRESS PERIOD 029
OPEN/CLOSE .\SWR_data_files\SWRSample05\ref\Rainfall_029.ref 1.0 (FREE)   -1          #FINF  STRESS PERIOD 029
-1                                                       #NUZF2 STRESS PERIOD 029
-1                                                       #NUZF3 STRESS PERIOD 029
-1                                                       #NUZF4 STRESS PERIOD 029
1                                                        #NUZF1 STRESS PERIOD 030
OPEN/CLOSE .\SWR_data_files\SWRSample05\ref\Rainfall_030.ref 1.0 (FREE)   -1          #FINF  STRESS PERIOD 030
-1                                                       #NUZF2 STRESS PERIOD 030
-1                                                       #NUZF3 STRESS PERIOD 030
-1                                                       #NUZF4 STRESS PERIOD 030
1                                                        #NUZF1 STRESS PERIOD 031
OPEN/CLOSE .\SWR_data_files\SWRSample05\ref\Rainfall_031.ref 1.0 (FREE)   -1          #FINF  STRESS PERIOD 031
-1                                                       #NUZF2 STRESS PERIOD 031
-1                                                       #NUZF3 STRESS PERIOD 031
-1                                                       #NUZF4 STRESS PERIOD 031
1                                                        #NUZF1 STRESS PERIOD 032
OPEN/CLOSE .\SWR_data_files\SWRSample05\ref\Rainfall_032.ref 1.0 (FREE)   -1          #FINF  STRESS PERIOD 032
-1                                                       #NUZF2 STRESS PERIOD 032
-1                                                       #NUZF3 STRESS PERIOD 032
-1                                                       #NUZF4 STRESS PERIOD 032
1                                                        #NUZF1 STRESS PERIOD 033
OPEN/CLOSE .\SWR_data_files\SWRSample05\ref\Rainfall_033.ref 1.0 (FREE)   -1          #FINF  STRESS PERIOD 033
-1                                                       #NUZF2 STRESS PERIOD 033
-1                                                       #NUZF3 STRESS PERIOD 033
-1                                                       #NUZF4 STRESS PERIOD 033
1                                                        #NUZF1 STRESS PERIOD 034
OPEN/CLOSE .\SWR_data_files\SWRSample05\ref\Rainfall_034.ref 1.0 (FREE)   -1          #FINF  STRESS PERIOD 034
-1                                                       #NUZF2 STRESS PERIOD 034
-1                                                       #NUZF3 STRESS PERIOD 034
-1                                                       #NUZF4 STRESS PERIOD 034
1                                                        #NUZF1 STRESS PERIOD 035
OPEN/CLOSE .\SWR_data_files\SWRSample05\ref\Rainfall_035.ref 1.0 (FREE)   -1          #FINF  STRESS PERIOD 035
-1                                                       #NUZF2 STRESS PERIOD 035
-1                                                       #NUZF3 STRESS PERIOD 035
-1                                                       #NUZF4 STRESS PERIOD 035
1                                                        #NUZF1 STRESS PERIOD 036
OPEN/CLOSE .\SWR_data_files\SWRSample05\ref\Rainfall_036.ref 1.0 (FREE)   -1          #FINF  STRESS PERIOD 036
-1                                                       #NUZF2 STRESS PERIOD 036
-1                                                       #NUZF3 STRESS PERIOD 036
-1                                                       #NUZF4 STRESS PERIOD 036
1                                                        #NUZF1 STRESS PERIOD 037
OPEN/CLOSE .\SWR_data_files\SWRSample05\ref\Rainfall_037.ref 1.0 (FREE)   -1          #FINF  STRESS PERIOD 037
-1                                                       #NUZF2 STRESS PERIOD 037
-1                                                       #NUZF3 STRESS PERIOD 037
-1                                                       #NUZF4 STRESS PERIOD 037
1                                                        #NUZF1 STRESS PERIOD 038
OPEN/CLOSE .\SWR_data_files\SWRSample05\ref\Rainfall_038.ref 1.0 (FREE)   -1          #FINF  STRESS PERIOD 038
-1                                                       #NUZF2 STRESS PERIOD 038
-1                                                       #NUZF3 STRESS PERIOD 038
-1                                                       #NUZF4 STRESS PERIOD 038
1                                                        #NUZF1 STRESS PERIOD 039
OPEN/CLOSE .\SWR_data_files\SWRSample05\ref\Rainfall_039.ref 1.0 (FREE)   -1          #FINF  STRESS PERIOD 039
-1                                                       #NUZF2 STRESS PERIOD 039
-1                                                       #NUZF3 STRESS PERIOD 039
-1                                                       #NUZF4 STRESS PERIOD 039
1                                                        #NUZF1 STRESS PERIOD 040
OPEN/CLOSE .\SWR_data_files\SWRSample05\ref\Rainfall_040.ref 1.0 (FREE)   -1          #FINF  STRESS PERIOD 040
-1                                                       #NUZF2 STRESS PERIOD 040
-1                                                       #NUZF3 STRESS PERIOD 040
-1                                                       #NUZF4 STRESS PERIOD 040
1                                                        #NUZF1 STRESS PERIOD 041
OPEN/CLOSE .\SWR_data_files\SWRSample05\ref\Rainfall_041.ref 1.0 (FREE)   -1          #FINF  STRESS PERIOD 041
-1                                                       #NUZF2 STRESS PERIOD 041
-1                                                       #NUZF3 STRESS PERIOD 041
-1                                                       #NUZF4 STRESS PERIOD 041
1                                                        #NUZF1 STRESS PERIOD 042
OPEN/CLOSE .\SWR_data_files\SWRSample05\ref\Rainfall_042.ref 1.0 (FREE)   -1          #FINF  STRESS PERIOD 042
-1                                                       #NUZF2 STRESS PERIOD 042
-1                                                       #NUZF3 STRESS PERIOD 042
-1                                                       #NUZF4 STRESS PERIOD 042
1                                                        #NUZF1 STRESS PERIOD 043
OPEN/CLOSE .\SWR_data_files\SWRSample05\ref\Rainfall_043.ref 1.0 (FREE)   -1          #FINF  STRESS PERIOD 043
-1                                                       #NUZF2 STRESS PERIOD 043
-1                                                       #NUZF3 STRESS PERIOD 043
-1                                                       #NUZF4 STRESS PERIOD 043
1                                                        #NUZF1 STRESS PERIOD 044
OPEN/CLOSE .\SWR_data_files\SWRSample05\ref\Rainfall_044.ref 1.0 (FREE)   -1          #FINF  STRESS PERIOD 044
-1                                                       #NUZF2 STRESS PERIOD 044
-1                                                       #NUZF3 STRESS PERIOD 044
-1                                                       #NUZF4 STRESS PERIOD 044
1                                                        #NUZF1 STRESS PERIOD 045
OPEN/CLOSE .\SWR_data_files\SWRSample05\ref\Rainfall_045.ref 1.0 (FREE)   -1          #FINF  STRESS PERIOD 045
-1                                                       #NUZF2 STRESS PERIOD 045
-1                                                       #NUZF3 STRESS PERIOD 045
-1                                                       #NUZF4 STRESS PERIOD 045
1                                                        #NUZF1 STRESS PERIOD 046
OPEN/CLOSE .\SWR_data_files\SWRSample05\ref\Rainfall_046.ref 1.0 (FREE)   -1          #FINF  STRESS PERIOD 046
-1                                                       #NUZF2 STRESS PERIOD 046
-1                                                       #NUZF3 STRESS PERIOD 046
-1                                                       #NUZF4 STRESS PERIOD 046
1                                                        #NUZF1 STRESS PERIOD 047
OPEN/CLOSE .\SWR_data_files\SWRSample05\ref\Rainfall_047.ref 1.0 (FREE)   -1          #FINF  STRESS PERIOD 047
-1                                                       #NUZF2 STRESS PERIOD 047
-1                                                       #NUZF3 STRESS PERIOD 047
-1                                                       #NUZF4 STRESS PERIOD 047
1                                                        #NUZF1 STRESS PERIOD 048
OPEN/CLOSE .\SWR_data_files\SWRSample05\ref\Rainfall_048.ref 1.0 (FREE)   -1          #FINF  STRESS PERIOD 048
-1                                                       #NUZF2 STRESS PERIOD 048
-1                                                       #NUZF3 STRESS PERIOD 048
-1                                                       #NUZF4 STRESS PERIOD 048
1                                                        #NUZF1 STRESS PERIOD 049
OPEN/CLOSE .\SWR_data_files\SWRSample05\ref\Rainfall_049.ref 1.0 (FREE)   -1          #FINF  STRESS PERIOD 049
-1                                                       #NUZF2 STRESS PERIOD 049
-1                                                       #NUZF3 STRESS PERIOD 049
-1                                                       #NUZF4 STRESS PERIOD 049
1                                                        #NUZF1 STRESS PERIOD 050
OPEN/CLOSE .\SWR_data_files\SWRSample05\ref\Rainfall_050.ref 1.0 (FREE)   -1          #FINF  STRESS PERIOD 050
-1                                                       #NUZF2 STRESS PERIOD 050
-1                                                       #NUZF3 STRESS PERIOD 050
-1                                                       #NUZF4 STRESS PERIOD 050
1                                                        #NUZF1 STRESS PERIOD 051
OPEN/CLOSE .\SWR_data_files\SWRSample05\ref\Rainfall_051.ref 1.0 (FREE)   -1          #FINF  STRESS PERIOD 051
-1                                                       #NUZF2 STRESS PERIOD 051
-1                                                       #NUZF3 STRESS PERIOD 051
-1                                                       #NUZF4 STRESS PERIOD 051
1                                                        #NUZF1 STRESS PERIOD 052
OPEN/CLOSE .\SWR_data_files\SWRSample05\ref\Rainfall_052.ref 1.0 (FREE)   -1          #FINF  STRESS PERIOD 052
-1                                                       #NUZF2 STRESS PERIOD 052
-1                                                       #NUZF3 STRESS PERIOD 052
-1                                                       #NUZF4 STRESS PERIOD 052
1                                                        #NUZF1 STRESS PERIOD 053
OPEN/CLOSE .\SWR_data_files\SWRSample05\ref\Rainfall_053.ref 1.0 (FREE)   -1          #FINF  STRESS PERIOD 053
-1                                                       #NUZF2 STRESS PERIOD 053
-1                                                       #NUZF3 STRESS PERIOD 053
-1                                                       #NUZF4 STRESS PERIOD 053
1                                                        #NUZF1 STRESS PERIOD 054
OPEN/CLOSE .\SWR_data_files\SWRSample05\ref\Rainfall_054.ref 1.0 (FREE)   -1          #FINF  STRESS PERIOD 054
-1                                                       #NUZF2 STRESS PERIOD 054
-1                                                       #NUZF3 STRESS PERIOD 054
-1                                                       #NUZF4 STRESS PERIOD 054
1                                                        #NUZF1 STRESS PERIOD 055
OPEN/CLOSE .\SWR_data_files\SWRSample05\ref\Rainfall_055.ref 1.0 (FREE)   -1          #FINF  STRESS PERIOD 055
-1                                                       #NUZF2 STRESS PERIOD 055
-1                                                       #NUZF3 STRESS PERIOD 055
-1                                                       #NUZF4 STRESS PERIOD 055
1                                                        #NUZF1 STRESS PERIOD 056
OPEN/CLOSE .\SWR_data_files\SWRSample05\ref\Rainfall_056.ref 1.0 (FREE)   -1          #FINF  STRESS PERIOD 056
-1                                                       #NUZF2 STRESS PERIOD 056
-1                                                       #NUZF3 STRESS PERIOD 056
-1                                                       #NUZF4 STRESS PERIOD 056
1                                                        #NUZF1 STRESS PERIOD 057
OPEN/CLOSE .\SWR_data_files\SWRSample05\ref\Rainfall_057.ref 1.0 (FREE)   -1          #FINF  STRESS PERIOD 057
-1                                                       #NUZF2 STRESS PERIOD 057
-1                                                       #NUZF3 STRESS PERIOD 057
-1                                                       #NUZF4 STRESS PERIOD 057
1                                                        #NUZF1 STRESS PERIOD 058
OPEN/CLOSE .\SWR_data_files\SWRSample05\ref\Rainfall_058.ref 1.0 (FREE)   -1          #FINF  STRESS PERIOD 058
-1                                                       #NUZF2 STRESS PERIOD 058
-1                                                       #NUZF3 STRESS PERIOD 058
-1                                                       #NUZF4 STRESS PERIOD 058
1                                                        #NUZF1 STRESS PERIOD 059
OPEN/CLOSE .\SWR_data_files\SWRSample05\ref\Rainfall_059.ref 1.0 (FREE)   -1          #FINF  STRESS PERIOD 059
-1                                                       #NUZF2 STRESS PERIOD 059
-1                                                       #NUZF3 STRESS PERIOD 059
-1                                                       #NUZF4 STRESS PERIOD 059
1                                                        #NUZF1 STRESS PERIOD 060
OPEN/CLOSE .\SWR_data_files\SWRSample05\ref\Rainfall_060.ref 1.0 (FREE)   -1          #FINF  STRESS PERIOD 060
-1                                                       #NUZF2 STRESS PERIOD 060
-1                                                       #NUZF3 STRESS PERIOD 060
-1                                                       #NUZF4 STRESS PERIOD 060
1                                                        #NUZF1 STRESS PERIOD 061
OPEN/CLOSE .\SWR_data_files\SWRSample05\ref\Rainfall_061.ref 1.0 (FREE)   -1          #FINF  STRESS PERIOD 061
-1                                                       #NUZF2 STRESS PERIOD 061
-1                                                       #NUZF3 STRESS PERIOD 061
-1                                                       #NUZF4 STRESS PERIOD 061
1                                                        #NUZF1 STRESS PERIOD 062
OPEN/CLOSE .\SWR_data_files\SWRSample05\ref\Rainfall_062.ref 1.0 (FREE)   -1          #FINF  STRESS PERIOD 062
-1                                                       #NUZF2 STRESS PERIOD 062
-1                                                       #NUZF3 STRESS PERIOD 062
-1                                                       #NUZF4 STRESS PERIOD 062
1                                                        #NUZF1 STRESS PERIOD 063
OPEN/CLOSE .\SWR_data_files\SWRSample05\ref\Rainfall_063.ref 1.0 (FREE)   -1          #FINF  STRESS PERIOD 063
-1                                                       #NUZF2 STRESS PERIOD 063
-1                                                       #NUZF3 STRESS PERIOD 063
-1                                                       #NUZF4 STRESS PERIOD 063
1                                                        #NUZF1 STRESS PERIOD 064
OPEN/CLOSE .\SWR_data_files\SWRSample05\ref\Rainfall_064.ref 1.0 (FREE)   -1          #FINF  STRESS PERIOD 064
-1                                                       #NUZF2 STRESS PERIOD 064
-1                                                       #NUZF3 STRESS PERIOD 064
-1                                                       #NUZF4 STRESS PERIOD 064
1                                                        #NUZF1 STRESS PERIOD 065
OPEN/CLOSE .\SWR_data_files\SWRSample05\ref\Rainfall_065.ref 1.0 (FREE)   -1          #FINF  STRESS PERIOD 065
-1                                                       #NUZF2 STRESS PERIOD 065
-1                                                       #NUZF3 STRESS PERIOD 065
-1                                                       #NUZF4 STRESS PERIOD 065
1                                                        #NUZF1 STRESS PERIOD 066
OPEN/CLOSE .\SWR_data_files\SWRSample05\ref\Rainfall_066.ref 1.0 (FREE)   -1          #FINF  STRESS PERIOD 066
-1                                                       #NUZF2 STRESS PERIOD 066
-1                                                       #NUZF3 STRESS PERIOD 066