# MODFLOW2000 Drain Package
PARAMETER  0  0
 1089 50  AUX IFACE
 1089 0                      Stress Period 1
 3 370 273 7817.000000 357.050000 0
 3 370 281 6800.000000 1127.500000 0
 3 369 256 7252.000000 193.560000 0
 3 369 257 7303.000000 987.360000 0
 3 369 258 7555.000000 267.960000 0
 3 368 274 7551.000000 529.100000 0
 3 368 275 7442.000000 555.250000 0
 3 367 256 7043.000000 830.000000 0
 3 366 256 6959.000000 896.320000 0
 3 364 255 6804.000000 53.920000 0
 3 364 256 6815.000000 799.160000 0
 3 362 255 6719.000000 934.000000 0
 3 362 262 7557.000000 511.490000 0
 3 362 263 7757.000000 832.370000 0
 3 361 261 7280.000000 919.170000 0
 3 361 262 7436.000000 575.680000 0
 1 360 254 6603.000000 995.560000 0
 1 359 254 6562.000000 908.760000 0
 1 359 257 6836.000000 610.470000 0
 1 359 258 6904.000000 300.440000 0
 3 359 275 7562.000000 811.450000 0
 3 359 276 7199.000000 1146.150000 0
 3 359 277 6957.000000 1102.450000 0
 3 359 278 6795.000000 1071.350000 0
 3 359 279 6683.000000 1061.650000 0
 3 358 284 6401.000000 22.200000 0
 3 358 285 6363.000000 1221.900000 0
 1 358 286 6320.000000 1254.550000 0
 1 358 287 6280.000000 2116.800000 0
 1 357 253 6480.000000 2214.550000 0
 1 357 257 6681.000000 790.615000 0
 1 356 288 6232.000000 2981.800000 0
 1 355 253 6392.000000 1042.700000 0
 1 355 256 6523.000000 932.575000 0
 1 352 253 6232.000000 1009.350000 0
 1 352 256 6318.000000 866.180000 0
 1 352 257 6320.000000 31.430000 0
 1 350 253 6146.000000 1049.800000 0
 1 350 257 6191.000000 831.180000 0
 1 350 258 6156.000000 143.395000 0
 1 348 253 6105.000000 583.250000 0
 1 348 254 6103.000000 471.100000 0
 1 348 259 6064.000000 971.100000 0
 1 347 148 5083.000000 1795.200000 0
 1 347 149 5104.000000 2193.500000 0
 1 347 260 6015.000000 897.600000 0
 1 347 261 6003.000000 1670.000000 0
 1 345 147 5049.000000 2187.800000 0
 1 345 255 6020.000000 618.000000 0
 1 345 256 6004.000000 1145.550000 0
 1 345 261 5964.000000 552.400000 0
 1 345 262 5953.000000 1751.700000 0
 1 343 145 5016.000000 339.200000 0
 1 343 146 5019.000000 2732.700000 0
 1 343 147 5035.000000 874.500000 0
 1 343 257 5958.000000 630.550000 0
 1 343 258 5950.000000 677.250000 0
 1 343 263 5921.000000 708.800000 0
 1 343 264 5907.000000 2362.600000 0
 1 343 265 5899.000000 651.700000 0
 1 342 145 5003.000000 2456.400000 0
 1 342 265 5885.000000 1845.300000 0
 1 342 266 5864.000000 2275.400000 0
 1 340 143 4974.000000 2215.400000 0
 1 340 260 5885.000000 1434.780000 0
 1 340 261 5884.000000 193.320000 0
 1 340 268 5804.000000 2406.900000 0
 1 339 284 5864.000000 1157.900000 0
 1 339 285 5867.000000 1982.400000 0
 1 338 142 4961.000000 162.300000 0
 1 338 143 4964.000000 2208.800000 0
 2 338 261 5855.000000 771.300000 0
 1 338 262 5843.000000 1059.060000 0
 1 338 269 5779.000000 2197.200000 0
 2 337 271 5743.000000 1481.300000 0
 1 337 279 5744.000000 599.200000 0
 1 337 280 5750.000000 2646.400000 0
 1 337 281 5772.000000 945.900000 0
 1 336 142 4944.000000 2368.100000 0
 1 336 263 5803.000000 1346.100000 0
 1 335 263 5775.000000 1776.480000 0
 1 335 272 5711.000000 478.200000 0
 2 335 273 5704.000000 1737.300000 0
 1 335 277 5711.000000 2189.300000 0
 1 335 278 5721.000000 184.900000 0
 1 333 142 4923.000000 2131.200000 0
 1 333 264 5744.000000 791.520000 0
 1 333 265 5742.000000 791.340000 0
 1 333 273 5666.000000 2250.000000 0
 1 333 274 5665.000000 83.700000 0
 1 333 275 5665.000000 1860.000000 0
 1 333 276 5675.000000 1799.300000 0
 3 332 238 6075.000000 267.050000 0
 1 331 143 4905.000000 2225.300000 0
 1 331 265 5723.000000 1651.680000 0
 1 330 273 5637.000000 2363.510000 0
 1 330 274 5642.000000 378.165000 0
 1 329 142 4894.000000 241.200000 0
 1 329 143 4894.000000 1910.600000 0
 1 329 238 5894.000000 410.690000 0
 1 329 239 5859.000000 852.775000 0
 1 328 143 4887.000000 2300.500000 0
 1 328 266 5683.000000 1476.000000 0
 1 328 273 5624.000000 1985.430000 0
 1 327 241 5808.000000 168.315000 0
 1 327 242 5796.000000 783.930000 0
 1 327 243 5784.000000 786.590000 0
 1 326 142 4874.000000 2028.800000 0
 1 326 266 5663.000000 359.760000 0
 2 326 267 5663.000000 975.060000 0
 1 326 273 5607.000000 1829.200000 0
 1 325 244 5763.000000 399.245000 0
 1 324 143 4864.000000 2313.700000 0
 1 324 249 5684.000000 27.370000 0
 1 324 253 5634.000000 575.295000 0
 1 324 254 5624.000000 786.695000 0
 1 324 255 5621.000000 331.345000 0
 1 324 266 5638.000000 1580.280000 0
 1 323 266 5618.000000 1542.780000 0
 1 322 256 5597.000000 501.305000 0
 1 322 257 5584.000000 776.055000 0
 1 322 258 5572.000000 830.900000 0
 1 322 259 5564.000000 529.305000 0
 1 321 143 4854.000000 1819.800000 0
 1 321 144 4854.000000 1289.100000 0
 1 321 259 5554.000000 282.065000 0
 1 321 260 5554.000000 746.830000 0
 1 321 265 5583.000000 1339.860000 0
 1 320 242 5960.000000 241.465000 0
 1 320 243 5906.000000 771.715000 0
 1 320 244 5862.000000 755.545000 0
 1 320 245 5822.000000 838.145000 0
 1 320 246 5796.000000 105.490000 0
 1 320 247 5763.000000 800.835000 0
 1 320 248 5737.000000 903.175000 0
 1 320 249 5704.000000 628.670000 0
 1 319 145 4841.000000 2459.700000 0
 1 319 249 5703.000000 235.025000 0
 1 319 250 5677.000000 819.350000 0
 1 319 251 5644.000000 757.680000 0
 1 319 252 5635.000000 553.385000 0
 2 319 254 5601.000000 712.775000 0
 2 319 255 5598.000000 80.360000 0
 1 319 260 5544.000000 829.535000 0
 1 319 264 5551.000000 1312.800000 0
 1 319 272 5522.000000 1788.145000 0
 1 318 238 6269.000000 660.415000 0
 1 318 239 6197.000000 821.380000 0
 2 318 240 6131.000000 390.180000 0
 1 317 145 4819.000000 177.900000 0
 1 317 146 4829.000000 2357.700000 0
 1 317 249 5675.000000 195.200000 0
 1 317 250 5654.000000 1088.400000 0
 2 317 251 5638.000000 1075.960000 0
 2 317 252 5624.000000 787.160000 0
 1 317 255 5584.000000 24.895000 0
 1 317 256 5580.000000 89.895000 0
 1 317 257 5564.000000 198.185000 0
 1 317 258 5555.000000 1573.130000 0
 1 317 259 5551.000000 1090.440000 0
 1 317 261 5529.000000 782.600000 0
 1 317 264 5535.000000 1242.120000 0
 1 316 146 4832.000000 2148.700000 0
 2 316 264 5531.000000 1038.780000 0
 1 316 272 5500.000000 1750.915000 0
 2 315 236 6471.000000 880.320000 0
 1 315 249 5719.000000 899.840000 0
 1 314 147 4824.000000 1509.300000 0
 1 314 148 4821.000000 1293.700000 0
 1 314 262 5513.000000 892.905000 0
 1 314 263 5504.000000 2147.940000 0
 1 314 272 5487.000000 1806.080000 0
 2 313 234 6712.000000 508.270000 0
 3 313 235 6679.000000 177.800000 0
 1 313 249 5794.000000 1057.680000 0
 1 312 149 4814.000000 2333.500000 0
 1 312 150 4811.000000 1311.500000 0
 1 312 248 5844.000000 205.320000 0
 1 312 249 5826.000000 1025.000000 0
 1 312 265 5484.000000 230.230000 0
 1 312 266 5474.000000 1847.300000 0
 1 312 272 5469.000000 1723.120000 0
 1 311 272 5458.000000 1773.270000 0
 3 310 237 7155.000000 936.080000 0
 3 310 238 7126.000000 162.640000 0
 1 310 247 5959.000000 1218.320000 0
 1 309 152 4797.000000 2303.700000 0
 1 309 272 5442.000000 1811.265000 0
 3 308 241 6556.000000 210.160000 0
 1 308 242 6441.000000 894.880000 0
 1 308 243 6319.000000 902.520000 0
 1 308 244 6240.000000 909.360000 0
 1 308 245 6196.000000 101.360000 0
 1 307 153 4787.000000 2154.500000 0
 1 307 272 5424.000000 1875.355000 0
 1 305 153 4784.000000 471.500000 0
 1 305 154 4784.000000 2078.900000 0
 1 305 272 5409.000000 2658.200000 0
 1 304 154 4774.000000 2382.600000 0
 1 304 273 5400.000000 1876.000000 0
 1 304 274 5394.000000 4489.800000 0
 1 304 275 5388.000000 5044.000000 0
 1 304 276 5380.000000 4698.600000 0
 1 302 153 4771.000000 37.200000 0
 1 302 154 4770.000000 2264.600000 0
 1 300 154 4764.000000 2085.900000 0
 1 297 154 4753.000000 2081.000000 0
 1 295 154 4751.000000 2066.300000 0
 1 294 289 5276.000000 6375.600000 0
 1 293 153 4739.000000 628.000000 0
 1 293 154 4740.000000 1813.400000 0
 1 292 289 5270.000000 6399.000000 0
 1 290 152 4735.000000 1574.775000 0
 1 290 289 5264.000000 1552.000000 0
 1 290 290 5263.000000 2920.000000 0
 1 289 290 5255.000000 1603.600000 0
 1 288 153 4724.000000 1530.375000 0
 1 287 289 5245.000000 4163.600000 0
 1 286 153 4707.000000 1546.500000 0
 1 285 289 5234.000000 4186.400000 0
 1 283 153 4704.000000 1592.025000 0
 1 283 290 5228.000000 4852.000000 0
 1 282 290 5224.000000 4269.200000 0
 1 281 154 4698.000000 1678.425000 0
 1 279 154 4688.000000 1516.425000 0
 1 278 154 4684.000000 1550.325000 0
 1 276 155 4678.000000 1545.150000 0
 1 274 154 4663.000000 1370.175000 0
 1 274 155 4663.000000 158.625000 0
 1 273 168 4963.000000 2749.650000 0
 1 271 154 4663.000000 1545.300000 0
 1 271 162 4778.000000 1167.500000 0
 1 271 163 4799.000000 982.000000 0
 1 271 164 4817.000000 1023.800000 0
 1 271 165 4838.000000 1191.700000 0
 1 271 166 4866.000000 454.350000 0
 1 269 154 4660.000000 1648.275000 0
 1 269 157 4683.000000 907.425000 0
 1 269 158 4696.000000 1094.050000 0
 1 269 159 4708.000000 718.500000 0
 1 267 154 4655.000000 1587.450000 0
 1 264 153 4648.000000 1626.375000 0
 1 262 154 4643.000000 1731.825000 0
 1 261 133 4611.000000 382.900000 0
 1 260 133 4611.000000 262.600000 0
 1 260 134 4613.000000 1305.700000 0
 1 260 135 4614.000000 1404.450000 0
 1 260 154 4639.000000 441.225000 0
 1 260 155 4637.000000 2005.800000 0
 1 259 155 4634.000000 157.275000 0
 1 259 156 4633.000000 1879.200000 0
 1 258 136 4616.000000 317.100000 0
 1 258 137 4616.000000 1088.600000 0
 1 258 138 4618.000000 1094.950000 0
 1 257 157 4628.000000 1459.200000 0
 1 257 158 4625.000000 1063.275000 0
 1 256 139 4623.000000 1388.250000 0
 1 255 139 4623.000000 243.950000 0
 1 255 140 4627.000000 1281.550000 0
 1 255 141 4629.000000 157.850000 0
 1 255 160 4616.000000 1107.225000 0
 1 255 161 4613.000000 1999.350000 0
 1 254 162 4611.000000 1276.500000 0
 1 253 141 4644.000000 531.425000 0
 1 252 162 4604.000000 1236.150000 0
 1 252 163 4602.000000 547.500000 0
 1 251 142 4675.000000 418.975000 0
 1 251 143 4692.000000 533.200000 0
 1 251 144 4712.000000 118.325000 0
 1 250 144 4730.000000 482.100000 0
 1 250 145 4755.000000 516.125000 0
 1 250 163 4599.000000 1334.100000 0
 1 250 164 4597.000000 627.150000 0
 1 248 146 4842.000000 401.300000 0
 1 248 147 4860.000000 126.700000 0
 1 247 167 4578.000000 426.975000 0
 1 247 168 4578.000000 1776.300000 0
 1 247 169 4576.000000 1484.925000 0
 1 246 147 4956.000000 528.525000 0
 1 245 171 4571.000000 1773.075000 0
 1 245 172 4568.000000 1242.150000 0
 1 243 147 5125.000000 430.025000 0
 1 243 148 5122.000000 109.450000 0
 1 242 173 4563.000000 1536.075000 0
 1 242 174 4562.000000 1381.500000 0
 3 241 147 5282.000000 542.600000 0
 1 240 175 4558.000000 1140.975000 0
 1 240 176 4553.000000 1959.525000 0
 1 239 148 5439.000000 560.725000 0
 1 237 179 4543.000000 1485.975000 0
 1 237 180 4541.000000 333.900000 0
 1 235 180 4538.000000 1742.325000 0
 1 233 180 4533.000000 378.300000 0
 1 233 181 4532.000000 1492.800000 0
 1 233 289 4930.000000 730.550000 0
 1 232 181 4529.000000 1753.125000 0
 2 231 290 5079.000000 1308.350000 0
 2 231 291 5143.000000 101.600000 0
 1 230 181 4526.000000 1956.525000 0
 1 230 291 5158.000000 1237.700000 0
 1 230 292 5200.000000 884.650000 0
 3 229 149 6546.000000 1235.950000 0
 1 228 181 4520.000000 1771.200000 0
 3 228 293 5348.000000 432.800000 0
 3 228 294 5443.000000 533.600000 0
 1 226 181 4514.000000 1838.700000 0
 3 226 297 5917.000000 93.050000 0
 3 226 298 5999.000000 530.625000 0
 1 225 181 4508.000000 3592.200000 0
 1 223 181 4507.000000 3025.200000 0
 1 221 180 4503.000000 4811.400000 0
 1 219 178 4502.000000 1317.300000 0
 1 219 179 4502.000000 3066.000000 0
 1 218 178 4498.000000 5843.700000 0
 3 215 271 5835.000000 45.675000 0
 3 215 272 5799.000000 863.135000 0
 3 215 273 5751.000000 840.000000 0
 3 215 274 5689.000000 417.935000 0
 2 215 275 5676.000000 319.620000 0
 3 213 269 5971.000000 330.400000 0
 3 213 270 5922.000000 882.070000 0
 3 212 269 5995.000000 893.095000 0
 2 212 277 5430.000000 161.175000 0
 2 212 278 5391.000000 890.995000 0
 3 210 269 6111.000000 873.495000 0
 2 210 279 5322.000000 143.775000 0
 2 210 280 5278.000000 2066.775000 0
 2 210 281 5273.000000 894.225000 0
 1 209 291 4925.000000 2410.350000 0
 3 208 269 6238.000000 848.575000 0
 2 207 284 5121.000000 655.575000 0
 2 207 285 5086.000000 1983.225000 0
 2 207 291 4963.000000 512.475000 0
 1 202 291 4954.000000 688.650000 0
 1 202 292 4933.000000 3538.950000 0
 1 202 293 4934.000000 1927.350000 0
 1 183 309 5192.000000 1203.300000 0
 1 182 276 5208.000000 1221.050000 0
 1 181 276 5219.000000 236.450000 0
 1 181 281 5201.000000 1876.200000 0
 1 181 282 5209.000000 1505.800000 0
 1 179 275 5259.000000 1132.150000 0
 2 177 275 5316.000000 1099.400000 0
 3 176 310 5351.000000 2134.200000 0
 2 175 273 5389.000000 1142.600000 0
 2 175 274 5380.000000 223.300000 0
 3 175 310 5359.000000 1902.000000 0
 3 175 311 5375.000000 1139.200000 0
 3 173 266 6008.000000 842.950000 0
 3 173 267 5909.000000 1094.750000 0
 3 173 268 5784.000000 1243.200000 0
 3 173 312 5427.000000 2555.600000 0
 3 172 266 6111.000000 858.350000 0
 3 171 313 5476.000000 2159.500000 0
 1 170 99 4596.000000 1922.625000 0
 1 170 284 5311.000000 2961.600000 0
 1 169 284 5323.000000 607.000000 0
 1 169 285 5323.000000 2170.000000 0
 1 167 100 4446.000000 79.050000 0
 1 167 101 4425.000000 1622.775000 0
 1 165 100 4398.000000 1623.600000 0
 1 165 101 4389.000000 40.725000 0
 1 165 210 4873.000000 2687.000000 0
 1 164 248 5048.000000 995.400000 0
 1 164 249 5053.000000 3976.500000 0
 1 163 210 4883.000000 3204.750000 0
 1 161 210 4893.000000 2848.750000 0
 1 161 249 5123.000000 3069.250000 0
 1 158 209 4903.000000 2638.300000 0
 1 155 124 4369.000000 5870.600000 0
 1 155 125 4369.000000 8145.400000 0
 1 155 288 5476.000000 1268.200000 0
 1 155 289 5480.000000 2057.000000 0
 1 154 125 4373.000000 10859.800000 0
 1 154 126 4373.000000 5322.400000 0
 1 154 127 4373.000000 3379.200000 0
 1 154 129 4373.000000 4844.000000 0
 1 154 130 4373.000000 5712.000000 0
 1 154 131 4373.000000 4855.800000 0
 1 154 135 4383.000000 2576.600000 0
 1 154 136 4383.000000 4791.800000 0
 1 154 137 4388.000000 673.700000 0
 1 152 138 4393.000000 698.850000 0
 1 152 139 4393.000000 1082.950000 0
 1 152 140 4398.000000 1376.350000 0
 1 152 141 4401.000000 44.700000 0
 1 151 141 4402.000000 1469.850000 0
 1 151 319 5824.000000 1139.600000 0
 1 149 143 4413.000000 1426.600000 0
 1 149 208 4962.000000 1290.200000 0
 1 149 209 4961.000000 976.200000 0
 1 148 292 5566.000000 1022.240000 0
 1 147 144 4423.000000 1197.950000 0
 1 146 292 5583.000000 1032.960000 0
 2 146 293 5584.000000 15.920000 0
 1 145 293 5595.000000 1127.880000 0
 1 144 146 4448.000000 827.250000 0
 1 144 147 4452.000000 897.700000 0
 2 144 322 5940.000000 1064.400000 0
 1 143 294 5613.000000 970.680000 0
 1 142 148 4467.000000 1257.050000 0
 2 142 315 6481.000000 808.900000 0
 2 142 316 6384.000000 1131.600000 0
 2 142 317 6278.000000 1103.800000 0
 2 142 318 6161.000000 189.300000 0
 2 142 322 5998.000000 1171.700000 0
 1 140 148 4478.000000 493.450000 0
 1 140 149 4479.000000 540.300000 0
 1 139 148 4488.000000 141.550000 0
 1 139 149 4488.000000 940.050000 0
 1 137 149 4508.000000 1063.700000 0
 1 135 148 4528.000000 89.400000 0
 1 135 149 4527.000000 1117.750000 0
 1 132 149 4554.000000 1060.550000 0
 1 131 297 5763.000000 909.760000 0
 1 130 149 4573.000000 1042.550000 0
 3 129 297 5800.000000 970.680000 0
 1 128 148 4603.000000 1260.650000 0
 3 127 297 5831.000000 1144.720000 0
 3 126 263 6631.000000 626.000000 0
 1 125 148 4633.000000 1295.550000 0
 1 125 210 5119.000000 2102.175000 0
 3 125 262 6520.000000 59.480000 0
 3 125 263 6530.000000 820.520000 0
 3 125 266 6959.000000 737.450000 0
 1 123 148 4663.000000 102.450000 0
 1 123 149 4672.000000 1432.750000 0
 1 123 211 5132.000000 52.125000 0
 1 123 212 5138.000000 1695.525000 0
 3 123 262 6414.000000 190.680000 0
 3 123 263 6348.000000 630.560000 0
 3 122 302 6079.000000 1041.280000 0
 1 121 150 4711.000000 1580.400000 0
 1 121 151 4723.000000 150.750000 0
 3 121 263 6202.000000 772.640000 0
 3 121 264 6211.000000 123.760000 0
 3 121 302 6116.000000 961.960000 0
 1 120 151 4734.000000 1475.300000 0
 1 120 213 5155.000000 1595.025000 0
 1 120 214 5163.000000 342.300000 0
 3 119 255 5776.000000 1030.720000 0
 3 119 256 5815.000000 972.480000 0
 3 119 257 5853.000000 1005.320000 0
 3 119 258 5910.000000 944.520000 0
 3 119 259 5939.000000 906.680000 0
 3 119 260 5983.000000 925.280000 0
 3 119 261 6030.000000 910.120000 0
 3 119 302 6163.000000 719.800000 0
 3 119 303 6200.000000 283.400000 0
 3 119 306 6466.000000 420.720000 0
 1 118 152 4783.000000 821.800000 0
 1 118 153 4800.000000 922.600000 0
 1 118 214 5173.000000 2322.975000 0
 1 118 215 5189.000000 187.725000 0
 3 117 182 8019.000000 175.035000 0
 3 117 183 7894.000000 512.680000 0
 3 117 305 6321.000000 216.760000 0
 1 116 88 4325.000000 777.375000 0
 1 116 89 4325.000000 7652.925000 0
 1 116 90 4328.000000 424.575000 0
 1 116 153 4831.000000 82.250000 0
 1 116 154 4843.000000 1490.900000 0
 1 116 215 5193.000000 2471.550000 0
 1 115 215 5203.000000 743.700000 0
 1 115 216 5204.000000 1951.875000 0
 1 114 88 4328.000000 140.700000 0
 1 114 89 4328.000000 5001.450000 0
 1 113 89 4328.000000 4564.950000 0
 1 113 90 4328.000000 3458.100000 0
 1 113 155 4913.000000 64.750000 0
 1 113 156 4922.000000 1253.000000 0
 1 113 217 5223.000000 2055.975000 0
 1 111 89 4333.000000 1257.300000 0
 1 111 90 4333.000000 2264.250000 0
 1 111 157 4971.000000 1141.600000 0
 1 111 218 5243.000000 1905.075000 0
 3 111 219 5264.000000 1162.575000 0
 1 109 89 4337.000000 4490.400000 0
 1 109 157 5027.000000 287.600000 0
 1 108 158 5053.000000 1126.150000 0
 1 108 221 5284.000000 2836.500000 0
 1 108 222 5298.000000 2091.075000 0
 3 108 223 5303.000000 365.475000 0
 1 106 90 4343.000000 699.550000 0
 1 106 91 4343.000000 1287.150000 0
 1 106 159 5111.000000 1349.950000 0
 1 106 223 5323.000000 217.950000 0
 1 106 224 5323.000000 1853.250000 0
 1 106 225 5344.000000 1923.375000 0
 3 106 226 5358.000000 186.600000 0
 1 104 91 4347.000000 1177.500000 0
 3 103 227 5394.000000 267.750000 0
 3 103 229 5420.000000 352.875000 0
 1 102 91 4352.000000 1445.900000 0
 1 101 231 5441.000000 1377.075000 0
 1 101 232 5465.000000 1964.325000 0
 3 101 233 5480.000000 2461.200000 0
 1 99 93 4356.000000 1503.000000 0
 1 99 94 4356.000000 410.250000 0
 1 97 94 4358.000000 1580.250000 0
 1 95 254 6438.000000 688.950000 0
 3 95 255 6487.000000 2120.925000 0
 3 95 256 6634.000000 211.500000 0
 3 93 240 5666.000000 2240.550000 0
 3 93 241 5709.000000 356.100000 0
 3 93 245 5907.000000 745.950000 0
 3 93 246 5917.000000 2089.350000 0
 3 93 247 5955.000000 1823.175000 0
 3 93 248 5998.000000 1898.850000 0
 3 93 249 6041.000000 617.550000 0
 3 93 250 6089.000000 193.875000 0
 3 93 252 6241.000000 1558.125000 0
 3 93 259 7077.000000 2269.350000 0
 3 93 260 7284.000000 1324.125000 0
 3 92 260 7404.000000 300.825000 0
 3 92 261 7487.000000 1794.525000 0
 3 92 262 7703.000000 754.575000 0
 3 91 242 5784.000000 395.400000 0
 3 91 243 5788.000000 1415.700000 0
 1 86 133 4529.000000 2339.100000 0
 1 86 134 4533.000000 2437.400000 0
 1 86 135 4536.000000 881.900000 0
 1 86 137 4543.000000 279.200000 0
 1 86 138 4546.000000 2746.500000 0
 1 86 139 4549.000000 2444.800000 0
 1 86 140 4553.000000 2192.700000 0
 1 86 141 4561.000000 2751.600000 0
 1 86 142 4563.000000 3616.800000 0
 1 78 153 4636.000000 1.796800e+005 0
 1 76 149 4636.000000 2.154100e+005 0
 1 76 155 4653.000000 1519.800000 0
 1 76 156 4661.000000 1578.825000 0
 1 75 161 4695.000000 1080.525000 0
 1 75 162 4696.000000 1921.800000 0
 3 75 163 4708.000000 354.675000 0
 1 64 95 4589.000000 1026.000000 0
 1 64 96 4580.000000 1580.800000 0
 1 62 93 4682.000000 664.000000 0
 1 61 93 4702.000000 2467.600000 0
 3 16 97 6986.000000 884.275000 0
 3 370 258 7600.000000 65.400000 0
 3 369 273 7720.000000 514.950000 0
 3 369 274 7596.000000 829.650000 0
 3 369 275 7406.000000 572.550000 0
 3 369 276 7279.000000 1122.300000 0
 3 368 256 7124.000000 898.480000 0
 3 365 256 6868.000000 871.480000 0
 3 363 255 6756.000000 845.600000 0
 3 363 264 7958.000000 825.195000 0
 3 363 265 8275.000000 827.470000 0
 3 363 266 8643.000000 118.825000 0
 3 362 264 7955.000000 36.190000 0
 3 361 254 6665.000000 119.520000 0
 3 361 255 6678.000000 765.160000 0
 1 360 258 6953.000000 640.710000 0
 3 360 259 7033.000000 738.955000 0
 3 360 260 7148.000000 873.600000 0
 3 360 261 7249.000000 98.560000 0
 3 359 280 6624.000000 1133.450000 0
 1 359 281 6563.000000 1056.900000 0
 1 359 282 6509.000000 1052.850000 0
 1 359 283 6444.000000 1181.200000 0
 1 359 284 6402.000000 1152.050000 0
 1 358 252 6539.000000 491.600000 0
 1 358 253 6519.000000 828.640000 0
 1 358 254 6521.000000 303.280000 0
 1 358 257 6747.000000 742.700000 0
 1 357 287 6252.000000 2069.200000 0
 1 357 288 6244.000000 2846.200000 0
 3 356 253 6443.000000 1761.600000 0
 1 356 256 6600.000000 322.665000 0
 1 356 257 6619.000000 468.825000 0
 1 354 253 6319.000000 1152.550000 0
 1 354 256 6443.000000 842.170000 0
 1 353 253 6277.000000 1120.950000 0
 1 353 256 6394.000000 848.540000 0
 1 352 287 6123.000000 2489.400000 0
 1 351 253 6190.000000 1160.000000 0
 1 351 257 6239.000000 818.510000 0
 1 349 253 6118.000000 1502.250000 0
 1 349 258 6123.000000 687.960000 0
 1 349 259 6090.000000 635.600000 0
 1 348 260 6042.000000 2106.900000 0
 1 347 254 6071.000000 1281.100000 0
 1 346 147 5061.000000 1017.900000 0
 1 346 148 5073.000000 1539.500000 0
 1 346 254 6054.000000 447.400000 0
 1 346 255 6023.000000 886.350000 0
 1 346 261 5979.000000 2252.000000 0
 1 344 147 5043.000000 2567.000000 0
 1 344 256 5992.000000 426.250000 0
 1 344 257 5990.000000 1069.050000 0
 1 344 262 5940.000000 1639.700000 0
 1 344 263 5932.000000 1647.000000 0
 1 342 144 5000.000000 1112.400000 0
 1 342 258 5947.000000 958.650000 0
 1 342 259 5941.000000 298.800000 0
 1 341 143 4984.000000 1405.200000 0
 1 341 144 4989.000000 1854.300000 0
 1 341 259 5908.000000 1113.600000 0
 1 341 260 5908.000000 453.840000 0
 1 341 266 5864.000000 57.000000 0
 1 341 267 5841.000000 2321.500000 0
 1 341 268 5834.000000 1152.900000 0
 1 339 143 4970.000000 2170.900000 0
 1 339 261 5862.000000 1425.540000 0
 1 339 268 5801.000000 1453.900000 0
 1 339 269 5783.000000 1642.500000 0
 1 338 280 5779.000000 186.100000 0
 1 338 281 5778.000000 1241.300000 0
 1 338 282 5791.000000 2320.100000 0
 1 338 283 5808.000000 2084.800000 0
 1 338 284 5839.000000 2685.600000 0
 1 337 142 4952.000000 2496.500000 0
 1 337 262 5824.000000 1375.020000 0
 1 337 263 5823.000000 67.200000 0
 2 337 269 5777.000000 465.000000 0
 1 336 271 5740.000000 962.600000 0
 1 336 272 5714.000000 2566.300000 0
 1 336 278 5724.000000 2536.200000 0
 1 336 279 5734.000000 2221.500000 0
 1 335 142 4935.000000 2478.600000 0
 1 334 142 4931.000000 2272.500000 0
 1 334 263 5765.000000 78.240000 0
 1 334 264 5760.000000 1513.500000 0
 1 334 273 5685.000000 2325.700000 0
 1 334 276 5691.000000 1287.000000 0
 1 334 277 5703.000000 1848.700000 0
 1 332 142 4915.000000 547.200000 0
 1 332 143 4914.000000 1541.100000 0
 1 332 265 5733.000000 1354.080000 0
 1 332 274 5654.000000 3364.400000 0
 1 332 275 5664.000000 1175.200000 0
 1 331 238 5964.000000 734.860000 0
 1 331 273 5644.000000 1079.755000 0
 1 331 274 5644.000000 3521.600000 0
 1 330 143 4902.000000 2436.300000 0
 1 330 238 5912.000000 719.355000 0
 1 330 265 5713.000000 598.200000 0
 2 330 266 5703.000000 976.020000 0
 1 329 266 5698.000000 1341.300000 0
 1 329 273 5630.000000 1949.985000 0
 1 328 239 5858.000000 24.675000 0
 1 328 240 5823.000000 834.015000 0
 1 328 241 5807.000000 680.995000 0
 1 327 142 4882.000000 1661.700000 0
 1 327 143 4884.000000 664.600000 0
 1 327 266 5681.000000 1258.140000 0
 2 327 267 5682.000000 95.520000 0
 1 327 273 5614.000000 2047.735000 0
 1 326 243 5784.000000 81.620000 0
 1 326 244 5769.000000 750.050000 0
 1 325 142 4874.000000 1369.100000 0
 1 325 143 4873.000000 667.500000 0
 1 325 245 5744.000000 738.360000 0
 1 325 246 5730.000000 721.385000 0
 1 325 247 5711.000000 742.735000 0
 1 325 248 5699.000000 727.685000 0
 1 325 249 5684.000000 754.145000 0
 1 325 250 5669.000000 733.180000 0
 1 325 251 5657.000000 730.450000 0
 1 325 252 5644.000000 722.855000 0
 1 325 253 5638.000000 216.300000 0
 1 325 266 5650.000000 884.580000 0
 2 325 267 5660.000000 604.560000 0
 1 325 273 5596.000000 1737.315000 0
 1 324 273 5587.000000 1736.890000 0
 1 323 143 4862.000000 2252.300000 0
 1 323 255 5612.000000 693.175000 0
 1 323 256 5600.000000 350.910000 0
 1 322 143 4855.000000 2000.500000 0
 1 322 265 5603.000000 837.780000 0
 2 322 266 5612.000000 902.640000 0
 1 321 246 5794.000000 696.220000 0
 1 321 247 5763.000000 27.685000 0
 1 320 144 4852.000000 1756.800000 0
 1 320 145 4844.000000 875.600000 0
 1 320 260 5550.000000 751.590000 0
 1 320 264 5563.000000 22.500000 0
 2 320 265 5564.000000 1328.520000 0
 1 319 240 6098.000000 434.315000 0
 1 319 241 6021.000000 815.675000 0
 2 319 242 5978.000000 546.910000 0
 1 318 145 4824.000000 2222.300000 0
 1 318 252 5624.000000 994.350000 0
 1 318 253 5604.000000 1851.745000 0
 1 318 254 5600.000000 972.930000 0
 1 318 255 5584.000000 1510.075000 0
 1 318 256 5578.000000 1550.955000 0
 1 318 257 5573.000000 2208.310000 0
 2 318 260 5544.000000 160.545000 0
 1 318 261 5530.000000 858.900000 0
 1 318 264 5544.000000 1217.160000 0
 1 318 272 5512.000000 1794.350000 0
 2 317 238 6326.000000 240.415000 0
 1 317 272 5506.000000 1827.160000 0
 2 316 236 6431.000000 485.590000 0
 2 316 237 6393.000000 427.070000 0
 1 316 249 5682.000000 882.520000 0
 1 316 259 5544.000000 748.020000 0
 1 316 260 5531.000000 1592.565000 0
 1 316 261 5526.000000 916.435000 0
 1 316 262 5527.000000 519.805000 0
 1 316 263 5526.000000 294.840000 0
 1 315 146 4829.000000 1447.100000 0
 1 315 147 4824.000000 1335.000000 0
 1 315 260 5531.000000 72.150000 0
 1 315 261 5523.000000 1435.460000 0
 1 315 262 5514.000000 2016.235000 0
 1 315 263 5514.000000 1563.060000 0
 1 315 272 5494.000000 1988.065000 0
 2 314 235 6557.000000 952.350000 0
 2 314 236 6555.000000 15.085000 0
 1 314 249 5756.000000 1110.880000 0
 1 313 148 4818.000000 1967.400000 0
 1 313 149 4816.000000 870.000000 0
 1 313 263 5504.000000 709.735000 0
 1 313 264 5494.000000 1747.070000 0
 1 313 265 5484.000000 1524.575000 0
 1 313 272 5476.000000 1743.945000 0
 1 311 150 4808.000000 1251.000000 0
 1 311 151 4807.000000 2344.200000 0
 1 311 247 5925.000000 76.920000 0
 1 311 248 5882.000000 1400.360000 0
 1 310 151 4804.000000 2235.500000 0
 1 310 152 4802.000000 396.000000 0
 3 310 233 7631.000000 639.000000 0
 3 310 234 7473.000000 843.480000 0
 3 310 235 7481.000000 68.800000 0
 3 310 236 7271.000000 231.160000 0
 1 310 272 5452.000000 1753.720000 0
 3 309 235 7360.000000 905.000000 0
 3 309 236 7281.000000 850.840000 0
 3 309 238 6992.000000 815.560000 0
 3 309 239 6833.000000 918.440000 0
 3 309 240 6681.000000 872.480000 0
 3 309 241 6571.000000 660.200000 0
 1 309 245 6132.000000 760.720000 0
 1 309 246 6049.000000 1151.360000 0
 1 309 247 6002.000000 218.920000 0
 1 308 152 4789.000000 1474.100000 0
 1 308 153 4789.000000 1198.800000 0
 1 308 272 5432.000000 1760.010000 0
 1 306 153 4787.000000 2273.800000 0
 1 306 272 5413.000000 9081.600000 0
 1 305 273 5403.000000 3308.800000 0
 1 305 275 5392.000000 666.600000 0
 1 303 154 4772.000000 2083.700000 0
 1 301 154 4764.000000 2142.300000 0
 1 299 154 4764.000000 2194.000000 0
 1 298 154 4761.000000 2615.200000 0
 1 296 154 4752.000000 2099.200000 0
 1 294 154 4744.000000 2253.800000 0
 1 293 289 5274.000000 6335.000000 0
 1 292 152 4735.000000 17.100000 0
 1 292 153 4735.000000 2583.600000 0
 1 291 152 4735.000000 1607.325000 0
 1 291 289 5264.000000 1474.000000 0
 1 291 290 5264.000000 3858.600000 0
 1 289 152 4732.000000 680.100000 0
 1 289 153 4726.000000 944.250000 0
 1 289 289 5258.000000 3207.400000 0
 1 288 289 5253.000000 4295.200000 0
 1 287 153 4718.000000 1543.350000 0
 1 286 289 5242.000000 4143.800000 0
 1 285 153 4706.000000 1572.300000 0
 1 284 153 4706.000000 1544.400000 0
 1 284 289 5232.000000 3717.600000 0
 1 284 290 5230.000000 991.600000 0
 1 282 153 4703.000000 1449.675000 0
 1 282 154 4703.000000 107.100000 0
 1 280 154 4693.000000 1663.425000 0
 1 277 154 4684.000000 1243.575000 0
 1 277 155 4684.000000 309.900000 0
 1 275 155 4663.000000 1539.450000 0
 1 273 154 4663.000000 1558.575000 0
 1 272 154 4663.000000 1581.300000 0
 1 272 163 4806.000000 140.350000 0
 1 272 164 4829.000000 1055.950000 0
 1 272 165 4856.000000 1015.050000 0
 1 272 166 4883.000000 1762.700000 0
 1 272 167 4912.000000 2267.700000 0
 1 272 168 4959.000000 12.850000 0
 1 270 154 4663.000000 1609.125000 0
 1 270 159 4714.000000 307.600000 0
 1 270 160 4728.000000 1052.300000 0
 1 270 161 4745.000000 1028.400000 0
 1 270 162 4766.000000 1072.800000 0
 1 270 163 4785.000000 1034.650000 0
 1 268 154 4656.000000 1597.125000 0
 1 266 154 4653.000000 1764.000000 0
 1 265 153 4649.000000 1640.100000 0
 1 265 154 4651.000000 74.625000 0
 1 263 153 4645.000000 787.650000 0
 1 263 154 4644.000000 1057.725000 0
 1 261 154 4640.000000 1769.775000 0
 1 259 135 4614.000000 284.650000 0
 1 259 136 4615.000000 1077.650000 0
 1 258 156 4631.000000 905.925000 0
 1 258 157 4629.000000 1331.625000 0
 1 257 138 4619.000000 773.000000 0
 1 257 139 4619.000000 535.400000 0
 1 256 158 4624.000000 858.825000 0
 1 256 159 4622.000000 1856.625000 0
 1 256 160 4619.000000 838.875000 0
 1 254 141 4635.000000 1268.900000 0
 1 254 161 4613.000000 702.225000 0
 1 253 162 4605.000000 1771.950000 0
 1 252 141 4656.000000 211.375000 0
 1 252 142 4664.000000 368.400000 0
 1 251 163 4600.000000 1743.675000 0
 1 249 145 4781.000000 142.075000 0
 1 249 146 4804.000000 620.275000 0
 1 249 164 4593.000000 1481.325000 0
 1 249 165 4586.000000 1024.275000 0
 1 248 165 4584.000000 1037.700000 0
 1 248 166 4582.000000 1662.375000 0
 1 248 167 4580.000000 1569.750000 0
 1 247 146 4897.000000 1.150000 0
 1 247 147 4917.000000 520.175000 0