# MODFLOW2005 Basic Package
#MODFLOW Data Set Created by Groundwater Vistas
#   
FREE SHOWPROGRESS 
  OPEN/CLOSE  ..\external_files\arrays\ibound\ib1.dat     1  (FREE)     -1     IBOUND Layer   1
  OPEN/CLOSE  ..\external_files\arrays\ibound\ib2.dat     1  (FREE)     -1     IBOUND Layer   2
  OPEN/CLOSE  ..\external_files\arrays\ibound\ib3.dat     1  (FREE)     -1     IBOUND Layer   3
  OPEN/CLOSE  ..\external_files\arrays\ibound\ib4.dat     1  (FREE)     -1     IBOUND Layer   4
 999.000000
  OPEN/CLOSE  ..\external_files\arrays\ic\l1_strt.dat     1  (FREE)     -1     STRT HD Layer   1
  OPEN/CLOSE  ..\external_files\arrays\ic\l2_strt.dat     1  (FREE)     -1     STRT HD Layer   2
  OPEN/CLOSE  ..\external_files\arrays\ic\l3_strt.dat     1  (FREE)     -1     STRT HD Layer   3
  OPEN/CLOSE  ..\external_files\arrays\ic\l4_strt.dat     1  (FREE)     -1     STRT HD Layer   4