# MODFLOW2000 River Package
PARAMETER  0  0
 1099 50   AUX  IFACE
 1099 0                      Stress Period 1
 1 370 280 6883.000000 837.450000 6882.000000 0
 1 370 282 6762.000000 429.100000 6761.000000 0
 1 368 283 6668.000000 976.750000 6667.000000 0
 1 368 284 6603.000000 1089.000000 6602.000000 0
 3 365 280 6866.000000 1757.925000 6865.000000 0
 1 365 281 6796.000000 1564.200000 6795.000000 0
 1 365 282 6737.000000 1622.925000 6736.000000 0
 1 365 283 6679.000000 1664.100000 6678.000000 0
 1 365 284 6603.000000 1688.250000 6602.000000 0
 1 365 285 6562.000000 985.575000 6561.000000 0
 1 365 287 6474.000000 1112.950000 6473.000000 0
 3 364 269 8890.000000 1836.000000 8889.000000 0
 3 364 270 8438.000000 1703.025000 8437.000000 0
 3 364 271 8154.000000 1633.500000 8153.000000 0
 3 363 274 7384.000000 1278.975000 7383.000000 0
 1 363 275 7284.000000 1605.150000 7283.000000 0
 1 363 276 7206.000000 1677.900000 7205.000000 0
 1 363 277 7139.000000 1648.875000 7138.000000 0
 1 363 278 7054.000000 2359.725000 7053.000000 0
 3 363 279 7054.000000 10.200000 7053.000000 0
 1 363 287 6404.000000 3448.700000 6403.000000 0
 1 361 287 6350.000000 2327.500000 6349.000000 0
 1 360 287 6324.000000 2450.700000 6323.000000 0
 1 358 288 6274.000000 1466.100000 6273.000000 0
 1 353 287 6155.000000 2054.200000 6154.000000 0
 1 353 288 6162.000000 105.400000 6161.000000 0
 1 351 287 6113.000000 2430.300000 6112.000000 0
 1 349 287 6074.000000 2353.700000 6073.000000 0
 1 346 287 6035.000000 2058.500000 6034.000000 0
 1 344 286 5994.000000 1880.100000 5993.000000 0
 1 344 287 6004.000000 238.700000 6003.000000 0
 3 342 285 5951.000000 360.600000 5950.000000 0
 1 342 286 5955.000000 1908.700000 5954.000000 0
 1 323 273 5575.000000 1858.015000 5574.000000 0
 1 321 272 5546.000000 1152.515000 5545.000000 0
 1 321 273 5553.000000 1059.355000 5552.000000 0
 1 312 267 5471.000000 644.670000 5470.000000 0
 1 309 268 5453.000000 579.345000 5452.000000 0
 1 309 269 5445.000000 1177.410000 5444.000000 0
 1 307 270 5431.000000 608.010000 5430.000000 0
 1 307 271 5425.000000 1391.845000 5424.000000 0
 1 304 277 5375.000000 5006.400000 5374.000000 0
 1 304 278 5369.000000 2640.200000 5368.000000 0
 1 302 281 5345.000000 4967.600000 5344.000000 0
 1 302 282 5338.000000 1804.600000 5337.000000 0
 1 299 284 5315.000000 4012.200000 5314.000000 0
 1 299 285 5315.000000 2233.400000 5314.000000 0
 1 297 286 5305.000000 813.800000 5304.000000 0
 1 297 287 5303.000000 5926.000000 5302.000000 0
 3 282 183 6351.000000 739.100000 6350.000000 0
 3 282 184 6430.000000 198.150000 6429.000000 0
 3 280 179 6001.000000 161.800000 6000.000000 0
 3 280 180 6004.000000 1199.750000 6003.000000 0
 3 280 181 6075.000000 1281.100000 6074.000000 0
 3 280 182 6146.000000 188.350000 6145.000000 0
 1 280 290 5215.000000 4680.600000 5214.000000 0
 3 278 175 5536.000000 857.500000 5535.000000 0
 3 278 176 5593.000000 1154.900000 5592.000000 0
 3 278 177 5675.000000 985.000000 5674.000000 0
 1 278 290 5205.000000 4640.200000 5204.000000 0
 1 276 289 5195.000000 4529.600000 5194.000000 0
 1 275 170 5121.000000 482.100000 5120.000000 0
 1 275 171 5154.000000 1147.600000 5153.000000 0
 1 275 172 5204.000000 607.550000 5203.000000 0
 1 275 289 5192.000000 4519.600000 5191.000000 0
 1 273 167 4945.000000 169.100000 4944.000000 0
 1 273 169 5024.000000 264.050000 5023.000000 0
 1 273 290 5184.000000 4746.600000 5183.000000 0
 1 271 291 5174.000000 5282.400000 5173.000000 0
 1 271 292 5175.000000 1360.000000 5174.000000 0
 1 269 160 4723.000000 42.800000 4722.000000 0
 1 236 148 5686.000000 1100.000000 5685.000000 0
 1 234 148 5886.000000 1079.550000 5885.000000 0
 3 232 148 6118.000000 666.350000 6117.000000 0
 3 232 149 6189.000000 388.550000 6188.000000 0
 3 231 148 6233.000000 236.550000 6232.000000 0
 3 231 149 6247.000000 842.500000 6246.000000 0
 1 216 9 4180.000000 6182.400000 4179.000000 0
 1 216 10 4180.000000 7001.750000 4179.000000 0
 1 216 11 4158.000000 7852.250000 4157.000000 0
 1 216 12 4159.000000 7393.750000 4158.000000 0
 1 216 13 4161.000000 7525.000000 4160.000000 0
 1 216 14 4162.000000 7336.700000 4161.000000 0
 1 216 15 4168.000000 3432.100000 4167.000000 0
 1 216 16 4170.000000 962.500000 4169.000000 0
 1 216 175 4494.000000 1144.200000 4493.000000 0
 1 216 176 4495.000000 4937.400000 4494.000000 0
 1 215 16 4154.000000 6351.100000 4153.000000 0
 1 215 17 4164.000000 6686.750000 4163.000000 0
 1 214 174 4490.000000 3200.400000 4489.000000 0
 1 214 175 4492.000000 2859.300000 4491.000000 0
 1 213 18 4163.000000 6543.950000 4162.000000 0
 1 213 19 4164.000000 8456.350000 4163.000000 0
 1 213 20 4169.000000 7549.150000 4168.000000 0
 1 212 172 4489.000000 1554.750000 4488.000000 0
 1 212 173 4489.000000 4758.600000 4488.000000 0
 1 212 174 4489.000000 289.950000 4488.000000 0
 1 209 169 4484.000000 850.500000 4483.000000 0
 1 209 170 4484.000000 3196.650000 4483.000000 0
 1 207 168 4478.000000 3627.750000 4477.000000 0
 1 207 296 4915.000000 4032.150000 4914.000000 0
 1 205 167 4474.000000 3281.700000 4473.000000 0
 1 205 168 4475.000000 84.150000 4474.000000 0
 1 204 294 4945.000000 5450.850000 4944.000000 0
 2 204 295 4945.000000 312.450000 4944.000000 0
 1 204 298 4934.000000 1598.100000 4933.000000 0
 1 204 299 4935.000000 562.100000 4934.000000 0
 1 203 167 4465.000000 4986.900000 4464.000000 0
 1 202 299 4958.000000 2199.900000 4957.000000 0
 1 200 165 4459.000000 2631.900000 4458.000000 0
 1 200 166 4459.000000 2849.100000 4458.000000 0
 1 200 290 4987.000000 2385.450000 4986.000000 0
 1 200 291 4980.000000 1677.600000 4979.000000 0
 1 200 299 4965.000000 719.800000 4964.000000 0
 1 200 300 4965.000000 2119.200000 4964.000000 0
 1 199 300 4985.000000 2247.200000 4984.000000 0
 1 198 164 4459.000000 2435.550000 4458.000000 0
 1 198 227 4620.000000 480.450000 4619.000000 0
 1 198 288 5015.000000 908.850000 5014.000000 0
 1 198 289 5005.000000 3752.100000 5004.000000 0
 1 197 300 5004.000000 2235.600000 5003.000000 0
 1 196 163 4454.000000 2115.000000 4453.000000 0
 1 195 163 4454.000000 4761.900000 4453.000000 0
 1 195 286 5045.000000 2203.500000 5044.000000 0
 1 195 287 5039.000000 4023.150000 5038.000000 0
 1 195 301 5025.000000 2572.700000 5024.000000 0
 1 193 281 5103.000000 3943.650000 5102.000000 0
 1 193 282 5089.000000 2004.150000 5088.000000 0
 1 193 283 5078.000000 1421.100000 5077.000000 0
 2 193 284 5065.000000 2011.050000 5064.000000 0
 1 192 302 5045.000000 2717.300000 5044.000000 0
 2 192 303 5065.000000 70.400000 5064.000000 0
 3 191 278 5114.000000 1204.200000 5113.000000 0
 1 190 303 5085.000000 962.300000 5084.000000 0
 1 190 304 5085.000000 1860.800000 5084.000000 0
 1 189 278 5126.000000 3749.550000 5125.000000 0
 3 188 225 4698.000000 2825.750000 4697.000000 0
 3 188 226 4683.000000 2349.750000 4682.000000 0
 1 188 278 5136.000000 5188.050000 5135.000000 0
 1 188 305 5105.000000 2252.400000 5104.000000 0
 1 187 305 5117.000000 2030.400000 5116.000000 0
 2 187 306 5125.000000 747.700000 5124.000000 0
 3 186 224 4727.000000 2845.000000 4726.000000 0
 1 186 278 5148.000000 8545.950000 5147.000000 0
 2 186 279 5153.000000 642.600000 5152.000000 0
 1 185 306 5145.000000 1148.900000 5144.000000 0
 1 185 307 5149.000000 2586.400000 5148.000000 0
 3 184 224 4747.000000 3034.000000 4746.000000 0
 1 184 276 5190.000000 914.400000 5189.000000 0
 1 184 277 5177.000000 521.250000 5176.000000 0
 1 184 279 5165.000000 908.000000 5164.000000 0
 1 184 280 5170.000000 2656.300000 5169.000000 0
 1 183 308 5184.000000 1837.200000 5183.000000 0
 3 182 86 8116.000000 231.825000 8115.000000 0
 2 182 216 4803.000000 2742.000000 4802.000000 0
 3 182 218 4798.000000 2224.750000 4797.000000 0
 3 182 219 4797.000000 2314.000000 4796.000000 0
 3 182 220 4794.000000 2947.250000 4793.000000 0
 3 182 310 5218.000000 215.600000 5217.000000 0
 3 180 86 7347.000000 1221.000000 7346.000000 0
 3 180 87 7082.000000 1148.775000 7081.000000 0
 3 180 309 5269.000000 142.700000 5268.000000 0
 3 180 310 5240.000000 3688.300000 5239.000000 0
 2 179 214 4823.000000 1220.125000 4822.000000 0
 2 179 215 4803.000000 3084.625000 4802.000000 0
 1 179 282 5225.000000 4228.600000 5224.000000 0
 1 179 283 5228.000000 397.500000 5227.000000 0
 3 178 310 5307.000000 2847.400000 5306.000000 0
 3 177 88 6419.000000 365.625000 6418.000000 0
 3 177 89 6223.000000 1503.300000 6222.000000 0
 1 177 213 4823.000000 1480.875000 4822.000000 0
 2 177 214 4823.000000 1354.750000 4822.000000 0
 1 177 283 5243.000000 1908.400000 5242.000000 0
 1 177 284 5245.000000 2596.300000 5244.000000 0
 1 176 284 5257.000000 2100.100000 5256.000000 0
 2 176 285 5262.000000 558.100000 5261.000000 0
 3 175 90 5965.000000 1167.450000 5964.000000 0
 3 175 91 5772.000000 1983.825000 5771.000000 0
 3 175 92 5709.000000 519.075000 5708.000000 0
 3 175 93 5440.000000 195.525000 5439.000000 0
 3 175 94 5292.000000 1747.650000 5291.000000 0
 3 175 95 5172.000000 1446.375000 5171.000000 0
 1 175 213 4824.000000 3462.875000 4823.000000 0
 1 174 285 5281.000000 2736.600000 5280.000000 0
 3 172 97 4818.000000 1743.825000 4817.000000 0
 3 172 98 4808.000000 51.525000 4807.000000 0
 1 172 212 4844.000000 2695.875000 4843.000000 0
 1 172 284 5295.000000 894.600000 5294.000000 0
 1 172 285 5295.000000 2037.300000 5294.000000 0
 3 171 314 5497.000000 704.600000 5496.000000 0
 1 170 211 4854.000000 2831.000000 4853.000000 0
 1 170 212 4854.000000 907.375000 4853.000000 0
 1 168 211 4863.000000 2723.750000 4862.000000 0
 2 168 313 5563.000000 180.100000 5562.000000 0
 1 168 314 5542.000000 2307.600000 5541.000000 0
 1 167 285 5350.000000 137.600000 5349.000000 0
 2 167 286 5354.000000 3200.200000 5353.000000 0
 1 166 313 5584.000000 2293.800000 5583.000000 0
 1 166 314 5584.000000 453.000000 5583.000000 0
 1 165 286 5377.000000 3488.300000 5376.000000 0
 1 164 314 5604.000000 2355.100000 5603.000000 0
 1 163 314 5625.000000 1240.250000 5624.000000 0
 1 162 285 5399.000000 3132.500000 5398.000000 0
 1 161 314 5643.000000 1226.550000 5642.000000 0
 1 160 286 5415.000000 3455.000000 5414.000000 0
 1 159 249 5165.000000 3353.625000 5164.000000 0
 1 159 314 5665.000000 1136.350000 5664.000000 0
 1 158 286 5438.000000 6.700000 5437.000000 0
 2 158 287 5437.000000 3062.500000 5436.000000 0
 1 157 250 5219.000000 1921.725000 5218.000000 0
 1 157 287 5445.000000 2398.800000 5444.000000 0
 2 157 314 5701.000000 413.000000 5700.000000 0
 1 156 209 4915.000000 2121.500000 4914.000000 0
 1 156 315 5713.000000 771.800000 5712.000000 0
 2 156 316 5720.000000 1243.750000 5719.000000 0
 1 154 209 4935.000000 2533.700000 4934.000000 0
 1 154 250 5291.000000 1841.325000 5290.000000 0
 3 154 251 5324.000000 72.225000 5323.000000 0
 1 154 317 5760.000000 665.200000 5759.000000 0
 2 154 318 5787.000000 600.400000 5786.000000 0
 1 153 209 4934.000000 2900.700000 4933.000000 0
 1 153 291 5517.000000 2337.000000 5516.000000 0
 1 152 252 5385.000000 945.225000 5384.000000 0
 2 152 253 5404.000000 931.575000 5403.000000 0
 1 152 318 5810.000000 266.300000 5809.000000 0
 1 152 319 5818.000000 852.450000 5817.000000 0
 1 151 208 4944.000000 2214.800000 4943.000000 0
 1 150 253 5457.000000 1737.300000 5456.000000 0
 1 150 291 5545.000000 227.600000 5544.000000 0
 2 150 292 5555.000000 2138.200000 5554.000000 0
 1 149 253 5483.000000 2027.550000 5482.000000 0
 1 147 209 4974.000000 2248.000000 4973.000000 0
 2 147 254 5558.000000 1699.650000 5557.000000 0
 1 147 321 5879.000000 1083.750000 5878.000000 0
 1 146 209 4975.000000 2097.800000 4974.000000 0
 3 145 254 5620.000000 1153.900000 5619.000000 0
 1 144 208 4984.000000 1439.500000 4983.000000 0
 3 144 209 4984.000000 1375.400000 4983.000000 0
 3 142 208 5013.000000 336.900000 5012.000000 0
 3 142 209 5006.000000 2563.000000 5005.000000 0
 3 142 259 6036.000000 578.300000 6035.000000 0
 3 142 260 6074.000000 718.100000 6073.000000 0
 1 141 294 5631.000000 1083.320000 5630.000000 0
 3 140 260 6220.000000 441.650000 6219.000000 0
 3 140 261 6262.000000 1043.050000 6261.000000 0
 3 139 210 5021.000000 2390.100000 5020.000000 0
 1 138 294 5661.000000 788.600000 5660.000000 0
 2 138 295 5665.000000 260.640000 5664.000000 0
 3 137 210 5043.000000 1895.900000 5042.000000 0
 3 137 211 5042.000000 1886.900000 5041.000000 0
 3 137 262 6633.000000 726.900000 6632.000000 0
 3 137 263 6720.000000 795.450000 6719.000000 0
 1 136 295 5683.000000 1022.720000 5682.000000 0
 3 135 211 5059.000000 3455.900000 5058.000000 0
 2 134 295 5704.000000 183.320000 5703.000000 0
 2 134 296 5704.000000 924.520000 5703.000000 0
 1 133 296 5724.000000 1045.840000 5723.000000 0
 3 132 209 5093.000000 400.000000 5092.000000 0
 3 132 210 5090.000000 1764.500000 5089.000000 0
 1 130 209 5095.000000 2402.900000 5094.000000 0
 1 128 209 5104.000000 2561.900000 5103.000000 0
 1 127 210 5111.000000 2561.250000 5110.000000 0
 1 127 211 5114.000000 1753.500000 5113.000000 0
 3 126 297 5867.000000 978.520000 5866.000000 0
 1 125 213 5134.000000 1418.475000 5133.000000 0
 1 125 214 5144.000000 2072.925000 5143.000000 0
 1 125 215 5152.000000 571.200000 5151.000000 0
 3 124 297 5917.000000 463.720000 5916.000000 0
 3 124 298 5945.000000 613.040000 5944.000000 0
 1 123 216 5164.000000 1265.550000 5163.000000 0
 1 123 217 5174.000000 2108.100000 5173.000000 0
 1 123 218 5184.000000 87.300000 5183.000000 0
 1 122 218 5184.000000 1951.200000 5183.000000 0
 1 122 219 5184.000000 1765.050000 5183.000000 0
 3 122 220 5194.000000 1009.650000 5193.000000 0
 1 120 221 5205.000000 3707.750000 5204.000000 0
 1 120 222 5221.000000 4017.750000 5220.000000 0
 3 120 223 5225.000000 824.625000 5224.000000 0
 3 119 239 5403.000000 396.400000 5402.000000 0
 3 119 252 5683.000000 1225.080000 5682.000000 0
 3 119 253 5722.000000 1029.200000 5721.000000 0
 3 119 254 5758.000000 1046.200000 5757.000000 0
 1 118 224 5235.000000 2495.000000 5234.000000 0
 1 118 225 5235.000000 4176.000000 5234.000000 0
 3 118 226 5254.000000 2110.000000 5253.000000 0
 1 117 226 5255.000000 3453.875000 5254.000000 0
 1 117 227 5264.000000 2411.875000 5263.000000 0
 1 117 235 5403.000000 1.965700e+005 5402.000000 0
 1 117 236 5403.000000 1.720200e+005 5402.000000 0
 1 117 244 5462.000000 1113.480000 5461.000000 0
 3 117 245 5470.000000 220.800000 5469.000000 0
 3 117 249 5604.000000 1373.920000 5603.000000 0
 3 117 250 5632.000000 154.720000 5631.000000 0
 3 116 249 5604.000000 38.080000 5603.000000 0
 3 115 184 7400.000000 584.710000 7399.000000 0
 3 114 184 7204.000000 761.180000 7203.000000 0
 1 114 246 5518.000000 1109.440000 5517.000000 0
 1 114 247 5545.000000 617.760000 5544.000000 0
 3 112 185 6832.000000 832.650000 6831.000000 0
 3 110 186 6600.000000 654.850000 6599.000000 0
 3 110 187 6557.000000 480.515000 6556.000000 0
 3 109 188 6435.000000 758.030000 6434.000000 0
 3 107 189 6303.000000 727.930000 6302.000000 0
 3 105 189 6188.000000 249.550000 6187.000000 0
 2 105 190 6190.000000 549.045000 6189.000000 0
 3 104 161 5260.000000 484.650000 5259.000000 0
 3 104 162 5277.000000 1286.700000 5276.000000 0
 3 104 163 5302.000000 1249.500000 5301.000000 0
 3 104 164 5344.000000 1207.250000 5343.000000 0
 3 103 166 5454.000000 217.800000 5453.000000 0
 3 103 168 5622.000000 308.850000 5621.000000 0
 3 103 169 5640.000000 1123.000000 5639.000000 0
 3 103 170 5721.000000 1205.100000 5720.000000 0
 3 103 171 5799.000000 1193.000000 5798.000000 0
 3 103 172 5952.000000 1097.750000 5951.000000 0
 3 103 173 6143.000000 407.900000 6142.000000 0
 3 103 175 6625.000000 685.800000 6624.000000 0
 3 103 176 6709.000000 675.750000 6708.000000 0
 3 103 178 7161.000000 815.450000 7160.000000 0
 3 102 190 6033.000000 964.285000 6032.000000 0
 3 100 189 5987.000000 1644.675000 5986.000000 0
 1 98 189 5894.000000 1573.350000 5893.000000 0
 1 98 236 5558.000000 2099.700000 5557.000000 0
 3 98 237 5563.000000 199.950000 5562.000000 0
 1 96 237 5595.000000 1925.100000 5594.000000 0
 3 95 189 5714.000000 1702.200000 5713.000000 0
 3 93 188 5545.000000 498.225000 5544.000000 0
 3 93 189 5525.000000 1729.350000 5524.000000 0
 1 92 96 4378.000000 3337.000000 4377.000000 0
 3 91 188 5441.000000 1604.400000 5440.000000 0
 1 90 97 4384.000000 3355.000000 4383.000000 0
 1 89 98 4390.000000 3857.200000 4389.000000 0
 2 88 187 5383.000000 436.275000 5382.000000 0
 3 88 188 5390.000000 1671.750000 5389.000000 0
 1 87 99 4393.000000 723.500000 4392.000000 0
 1 86 127 4512.000000 516.800000 4511.000000 0
 1 86 128 4513.000000 2619.300000 4512.000000 0
 1 86 129 4515.000000 2840.400000 4514.000000 0
 1 86 130 4517.000000 2440.200000 4516.000000 0
 1 86 131 4521.000000 2298.800000 4520.000000 0
 1 86 132 4525.000000 2327.000000 4524.000000 0
 3 86 185 5337.000000 103.050000 5336.000000 0
 3 86 186 5336.000000 1888.650000 5335.000000 0
 1 85 99 4398.000000 291.900000 4397.000000 0
 1 85 100 4399.000000 2111.400000 4398.000000 0
 1 85 146 4637.000000 2.167400e+005 4636.000000 0
 1 84 123 4500.000000 2219.700000 4499.000000 0
 1 84 124 4500.000000 2480.400000 4499.000000 0
 3 84 125 4500.000000 3223.200000 4499.000000 0
 1 84 126 4504.000000 1209.700000 4503.000000 0
 3 84 184 5264.000000 428.475000 5263.000000 0
 3 84 185 5264.000000 1579.575000 5263.000000 0
 1 83 99 4407.000000 763.800000 4406.000000 0
 1 83 146 4637.000000 2.008900e+005 4636.000000 0
 1 83 148 4637.000000 1.787100e+005 4636.000000 0
 1 83 149 4637.000000 2.291800e+005 4636.000000 0
 1 82 100 4410.000000 2385.800000 4409.000000 0
 1 82 120 4481.000000 2514.600000 4480.000000 0
 1 82 122 4485.000000 1748.700000 4484.000000 0
 2 82 123 4495.000000 616.200000 4494.000000 0
 1 81 146 4637.000000 2.075400e+005 4636.000000 0
 3 81 184 5184.000000 2030.550000 5183.000000 0
 1 80 100 4417.000000 2422.000000 4416.000000 0
 1 80 146 4637.000000 2.029100e+005 4636.000000 0
 1 80 151 4637.000000 1.643400e+005 4636.000000 0
 1 80 152 4637.000000 56160.000000 4636.000000 0
 3 79 183 5144.000000 2571.600000 5143.000000 0
 1 78 100 4428.000000 904.800000 4427.000000 0
 1 78 101 4430.000000 1210.700000 4429.000000 0
 3 78 148 4637.000000 2.275300e+005 4636.000000 0
 1 78 152 4637.000000 1.743800e+005 4636.000000 0
 3 77 181 5092.000000 1277.250000 5091.000000 0
 3 77 182 5091.000000 1363.200000 5090.000000 0
 1 75 100 4451.000000 2227.900000 4450.000000 0
 3 75 178 5034.000000 838.725000 5033.000000 0
 3 75 179 5041.000000 2569.800000 5040.000000 0
 3 75 180 5062.000000 1525.800000 5061.000000 0
 3 74 178 5032.000000 915.000000 5031.000000 0
 1 73 100 4464.000000 2134.600000 4463.000000 0
 1 73 150 4648.000000 912.500000 4647.000000 0
 1 73 151 4650.000000 343.950000 4649.000000 0
 3 73 164 4721.000000 162.075000 4720.000000 0
 1 73 165 4724.000000 1730.475000 4723.000000 0
 3 72 173 4888.000000 1626.525000 4887.000000 0
 3 72 174 4905.000000 974.325000 4904.000000 0
 1 71 99 4477.000000 2262.000000 4476.000000 0
 1 71 151 4656.000000 607.400000 4655.000000 0
 1 71 152 4661.000000 1329.700000 4660.000000 0
 1 70 165 4746.000000 1969.350000 4745.000000 0
 1 70 170 4832.000000 441.975000 4831.000000 0
 1 70 171 4832.000000 2076.900000 4831.000000 0
 3 70 172 4880.000000 88.800000 4879.000000 0
 1 69 152 4671.000000 1128.650000 4670.000000 0
 1 69 153 4673.000000 404.800000 4672.000000 0
 1 68 97 4520.000000 553.000000 4519.000000 0
 1 68 98 4512.000000 1905.100000 4511.000000 0
 1 68 153 4677.000000 1363.400000 4676.000000 0
 1 68 165 4760.000000 1651.050000 4759.000000 0
 1 68 167 4777.000000 672.450000 4776.000000 0
 1 68 168 4793.000000 2388.000000 4792.000000 0
 1 68 169 4801.000000 1137.300000 4800.000000 0
 1 66 97 4543.000000 2375.500000 4542.000000 0
 3 66 154 4685.000000 1719.750000 4684.000000 0
 3 66 155 4704.000000 1602.300000 4703.000000 0
 3 66 156 4723.000000 620.300000 4722.000000 0
 3 64 156 4760.000000 578.900000 4759.000000 0
 3 64 157 4773.000000 631.600000 4772.000000 0
 3 61 157 4849.000000 1249.300000 4848.000000 0
 3 61 158 4861.000000 2216.900000 4860.000000 0
 1 59 92 4788.000000 2522.000000 4787.000000 0
 3 59 156 4893.000000 487.600000 4892.000000 0
 3 59 157 4889.000000 2849.000000 4888.000000 0
 3 58 116 4722.000000 532.300000 4721.000000 0
 3 58 117 4727.000000 2119.400000 4726.000000 0
 3 58 118 4741.000000 1764.900000 4740.000000 0
 3 57 89 5039.000000 392.600000 5038.000000 0
 3 57 90 4939.000000 2712.200000 4938.000000 0
 3 57 91 4923.000000 233.500000 4922.000000 0
 3 57 157 4947.000000 2518.200000 4946.000000 0
 3 56 119 4798.000000 611.000000 4797.000000 0
 3 56 120 4799.000000 2127.400000 4798.000000 0
 3 56 157 4981.000000 550.700000 4980.000000 0
 3 56 158 4982.000000 1978.200000 4981.000000 0
 3 55 85 5600.000000 1487.700000 5599.000000 0
 3 55 86 5435.000000 2759.300000 5434.000000 0
 3 55 87 5412.000000 372.900000 5411.000000 0
 3 54 158 5018.000000 2266.800000 5017.000000 0
 3 53 121 4838.000000 270.600000 4837.000000 0
 3 53 122 4838.000000 2463.100000 4837.000000 0
 3 52 82 6179.000000 2038.400000 6178.000000 0
 3 52 83 6115.000000 579.900000 6114.000000 0
 3 52 154 5145.000000 1508.100000 5144.000000 0
 3 52 155 5119.000000 2234.500000 5118.000000 0
 3 52 156 5083.000000 2377.700000 5082.000000 0
 3 52 157 5056.000000 2270.700000 5055.000000 0
 3 52 158 5052.000000 181.000000 5051.000000 0
 3 51 122 4879.000000 1126.900000 4878.000000 0
 3 51 123 4876.000000 1055.500000 4875.000000 0
 3 50 153 5222.000000 2677.700000 5221.000000 0
 3 49 122 4896.000000 1579.100000 4895.000000 0
 3 49 123 4898.000000 781.800000 4897.000000 0
 3 48 122 4917.000000 1751.600000 4916.000000 0
 3 48 123 4918.000000 874.400000 4917.000000 0
 3 47 150 5296.000000 2101.300000 5295.000000 0
 3 46 122 4955.000000 2314.100000 4954.000000 0
 3 45 148 5379.000000 1181.100000 5378.000000 0
 3 45 149 5361.000000 2742.700000 5360.000000 0
 3 44 121 5016.000000 535.900000 5015.000000 0
 3 44 122 4995.000000 2334.900000 4994.000000 0
 3 43 147 5411.000000 2520.900000 5410.000000 0
 3 43 148 5412.000000 8.600000 5411.000000 0
 3 42 119 5122.000000 2457.000000 5121.000000 0
 3 41 118 5218.000000 1197.800000 5217.000000 0
 3 41 119 5180.000000 1972.600000 5179.000000 0
 3 41 145 5493.000000 2552.200000 5492.000000 0
 3 41 146 5482.000000 568.800000 5481.000000 0
 3 40 144 5514.000000 1135.900000 5513.000000 0
 3 40 145 5509.000000 1324.000000 5508.000000 0
 3 39 116 5298.000000 2430.500000 5297.000000 0
 3 39 117 5281.000000 1514.500000 5280.000000 0
 3 38 144 5537.000000 2056.800000 5536.000000 0
 3 37 114 5494.000000 438.200000 5493.000000 0
 3 37 115 5443.000000 2250.600000 5442.000000 0
 3 36 143 5592.000000 1620.300000 5591.000000 0
 3 36 144 5586.000000 768.500000 5585.000000 0
 3 35 113 5550.000000 2216.500000 5549.000000 0
 3 35 114 5537.000000 742.800000 5536.000000 0
 3 34 140 5643.000000 1812.100000 5642.000000 0
 3 34 141 5633.000000 2814.500000 5632.000000 0
 3 34 142 5620.000000 2914.400000 5619.000000 0
 3 34 143 5614.000000 806.500000 5613.000000 0
 3 32 110 5715.000000 1186.300000 5714.000000 0
 3 32 111 5695.000000 1774.800000 5694.000000 0
 3 31 136 5674.000000 3129.300000 5673.000000 0
 3 30 108 5817.000000 1595.175000 5816.000000 0
 3 30 109 5817.000000 281.850000 5816.000000 0
 3 29 131 5743.000000 3725.000000 5742.000000 0
 3 29 132 5741.000000 1861.100000 5740.000000 0
 3 28 108 5859.000000 1784.850000 5858.000000 0
 3 27 129 5780.000000 1103.025000 5779.000000 0
 3 27 130 5755.000000 2408.700000 5754.000000 0
 3 26 107 5922.000000 1774.650000 5921.000000 0
 3 25 106 5962.000000 1902.675000 5961.000000 0
 3 25 107 5959.000000 583.275000 5958.000000 0
 3 25 127 5798.000000 1267.050000 5797.000000 0
 3 25 128 5784.000000 2112.900000 5783.000000 0
 3 23 104 6062.000000 1338.450000 6061.000000 0
 3 23 105 6040.000000 1043.925000 6039.000000 0
 3 22 125 5829.000000 2453.100000 5828.000000 0
 3 21 103 6135.000000 495.450000 6134.000000 0
 3 21 104 6138.000000 1204.650000 6137.000000 0
 3 20 123 5895.000000 1406.850000 5894.000000 0
 3 20 124 5879.000000 839.850000 5878.000000 0
 3 19 104 6222.000000 821.205000 6221.000000 0
 3 18 103 6303.000000 26.670000 6302.000000 0
 3 18 104 6278.000000 826.000000 6277.000000 0
 1 18 119 5934.000000 521.475000 5933.000000 0
 1 18 120 5896.000000 1763.625000 5895.000000 0
 1 18 121 5896.000000 2311.500000 5895.000000 0
 1 18 122 5895.000000 2210.775000 5894.000000 0
 3 17 97 6841.000000 374.395000 6840.000000 0
 3 16 112 6111.000000 1577.400000 6110.000000 0
 3 16 113 6096.000000 801.300000 6095.000000 0
 3 16 114 6055.000000 1322.100000 6054.000000 0
 3 16 115 6034.000000 1547.700000 6033.000000 0
 3 14 99 6917.000000 574.125000 6916.000000 0
 3 14 100 6840.000000 901.500000 6839.000000 0
 3 14 110 6180.000000 1336.200000 6179.000000 0
 3 14 111 6160.000000 828.975000 6159.000000 0
 3 13 110 6206.000000 1810.500000 6205.000000 0
 3 12 101 6671.000000 76.875000 6670.000000 0
 3 12 102 6540.000000 2047.950000 6539.000000 0
 3 12 103 6478.000000 427.725000 6477.000000 0
 3 12 104 6436.000000 1892.475000 6435.000000 0
 3 11 103 6478.000000 1261.650000 6477.000000 0
 3 372 275 8045.000000 24.600000 8044.000000 0
 3 371 275 8002.000000 447.500000 8001.000000 0
 3 371 276 7715.000000 1052.150000 7714.000000 0
 3 371 277 7401.000000 1060.900000 7400.000000 0
 1 371 278 7141.000000 1121.300000 7140.000000 0
 1 371 279 7001.000000 1374.000000 7000.000000 0
 3 371 280 6917.000000 341.300000 6916.000000 0
 3 369 277 7178.000000 1074.800000 7177.000000 0
 3 369 278 7083.000000 1028.350000 7082.000000 0
 3 369 279 6992.000000 1094.500000 6991.000000 0
 1 369 280 6888.000000 1110.850000 6887.000000 0
 1 369 281 6797.000000 1109.550000 6796.000000 0
 1 369 282 6718.000000 2225.450000 6717.000000 0
 3 369 283 6703.000000 436.050000 6702.000000 0
 1 367 284 6600.000000 217.300000 6599.000000 0
 1 367 285 6558.000000 1270.650000 6557.000000 0
 3 367 286 6551.000000 451.300000 6550.000000 0
 1 366 286 6500.000000 1295.800000 6499.000000 0
 1 366 287 6499.000000 84.800000 6498.000000 0
 3 365 271 8060.000000 705.525000 8059.000000 0
 1 365 272 7838.000000 1646.850000 7837.000000 0
 1 365 273 7647.000000 1677.450000 7646.000000 0
 3 365 274 7593.000000 683.100000 7592.000000 0
 1 364 274 7453.000000 1630.275000 7452.000000 0
 3 364 278 7048.000000 8.625000 7047.000000 0
 3 364 279 6958.000000 2034.000000 6957.000000 0
 3 364 280 6921.000000 489.750000 6920.000000 0
 1 364 285 6544.000000 653.550000 6543.000000 0
 1 364 286 6481.000000 1800.375000 6480.000000 0
 1 364 287 6433.000000 3520.900000 6432.000000 0
 3 363 268 9264.000000 1483.875000 9263.000000 0
 1 362 287 6382.000000 2301.500000 6381.000000 0
 1 359 287 6285.000000 902.900000 6284.000000 0
 1 359 288 6287.000000 1339.000000 6286.000000 0
 1 355 288 6204.000000 2110.600000 6203.000000 0
 1 354 288 6165.000000 2414.100000 6164.000000 0
 1 350 287 6085.000000 2218.500000 6084.000000 0
 1 348 287 6062.000000 2974.300000 6061.000000 0
 1 347 287 6038.000000 2160.800000 6037.000000 0
 1 345 287 6013.000000 2168.600000 6012.000000 0
 1 343 286 5976.000000 2313.100000 5975.000000 0
 1 341 285 5918.000000 2265.500000 5917.000000 0
 1 340 285 5885.000000 2315.400000 5884.000000 0
 1 322 273 5565.000000 2035.835000 5564.000000 0
 1 320 272 5535.000000 1981.775000 5534.000000 0
 1 311 267 5465.000000 1685.255000 5464.000000 0
 1 311 268 5462.000000 279.240000 5461.000000 0
 1 310 268 5455.000000 1676.285000 5454.000000 0
 1 308 269 5435.000000 1066.520000 5434.000000 0
 1 308 270 5435.000000 1172.990000 5434.000000 0
 1 306 271 5424.000000 841.295000 5423.000000 0
 1 303 278 5367.000000 2284.800000 5366.000000 0
 1 303 279 5362.000000 4269.200000 5361.000000 0
 1 303 280 5354.000000 5231.000000 5353.000000 0
 1 303 281 5351.000000 666.000000 5350.000000 0
 1 301 282 5335.000000 4048.200000 5334.000000 0
 1 301 283 5330.000000 5520.200000 5329.000000 0
 1 300 283 5327.000000 371.600000 5326.000000 0
 1 300 284 5322.000000 5464.800000 5321.000000 0
 1 298 285 5313.000000 5161.800000 5312.000000 0
 1 298 286 5305.000000 4943.200000 5304.000000 0
 1 296 287 5302.000000 808.000000 5301.000000 0
 1 296 288 5293.000000 5743.400000 5292.000000 0
 1 295 288 5285.000000 5175.000000 5284.000000 0
 1 295 289 5284.000000 2058.200000 5283.000000 0
 3 281 182 6157.000000 939.350000 6156.000000 0
 3 281 183 6237.000000 1075.600000 6236.000000 0
 1 281 290 5224.000000 4628.200000 5223.000000 0
 3 279 177 5720.000000 419.450000 5719.000000 0
 3 279 178 5748.000000 1349.100000 5747.000000 0
 3 279 179 5872.000000 1492.350000 5871.000000 0
 1 279 290 5215.000000 4397.200000 5214.000000 0
 3 277 173 5342.000000 1239.950000 5341.000000 0
 3 277 174 5433.000000 1187.500000 5432.000000 0
 3 277 175 5496.000000 620.300000 5495.000000 0
 1 277 289 5205.000000 3465.800000 5204.000000 0
 1 277 290 5205.000000 702.200000 5204.000000 0
 3 276 172 5244.000000 1183.150000 5243.000000 0
 1 274 169 5035.000000 1217.950000 5034.000000 0
 1 274 170 5077.000000 776.350000 5076.000000 0
 1 274 289 5192.000000 1913.800000 5191.000000 0
 1 274 290 5187.000000 3258.400000 5186.000000 0
 1 272 290 5185.000000 3854.200000 5184.000000 0
 1 272 291 5185.000000 1153.000000 5184.000000 0
 1 237 148 5607.000000 1076.000000 5606.000000 0
 1 235 148 5785.000000 1046.150000 5784.000000 0
 3 233 148 5999.000000 1070.400000 5998.000000 0
 1 217 177 4496.000000 5544.750000 4495.000000 0
 1 215 7 4169.000000 4763.850000 4168.000000 0
 1 215 8 4170.000000 7444.850000 4169.000000 0
 1 215 9 4165.000000 2921.800000 4164.000000 0
 1 215 15 4152.000000 3662.750000 4151.000000 0
 1 215 175 4493.000000 4798.650000 4492.000000 0
 1 215 176 4494.000000 519.000000 4493.000000 0
 1 214 17 4159.000000 6612.900000 4158.000000 0
 1 214 18 4176.000000 2305.100000 4175.000000 0
 1 213 173 4489.000000 1396.050000 4488.000000 0
 1 213 174 4489.000000 3898.500000 4488.000000 0
 1 211 171 4488.000000 2566.800000 4487.000000 0
 1 211 172 4488.000000 5485.950000 4487.000000 0
 1 210 170 4484.000000 4006.500000 4483.000000 0
 1 210 171 4484.000000 2642.100000 4483.000000 0
 1 208 168 4483.000000 4011.300000 4482.000000 0