# SFR Package for MODFLOW2000
OPTIONS
REACHINPUT
TABFILES 37 2 
END
 -1580  86  0  0  1.283904e+005  1.000000e-004  50  60 1 10 1 30
  1  206  308  1  1  420.567333  4945.850000  0.002138  1.000000  0.050000
  1  206  307  1  2  2641.433440  4942.580000  0.002138  1.000000  0.050000
  1  206  306  1  3  2466.442789  4937.120000  0.002138  1.000000  0.050000
  1  207  307  1  4  1603.196117  4932.760000  0.002138  1.000000  0.050000
  1  207  306  1  5  1683.692369  4929.250000  0.002138  1.000000  0.050000
  1  207  306  2  1  543.413666  4927.210000  0.000891  1.000000  0.050000
  1  207  305  2  2  2601.825184  4925.810000  0.000891  1.000000  0.050000
  1  207  304  2  3  2291.872614  4923.630000  0.000891  1.000000  0.050000
  1  206  304  2  4  118.142692  4922.550000  0.000891  1.000000  0.050000
  1  206  303  2  5  611.490868  4922.230000  0.000891  1.000000  0.050000
  1  207  303  2  6  2079.216697  4921.030000  0.000891  1.000000  0.050000
  1  208  303  2  7  823.103111  4919.740000  0.000891  1.000000  0.050000
  1  208  304  2  8  1466.950816  4918.720000  0.000891  1.000000  0.050000
  1  209  304  2  9  1630.478469  4917.340000  0.000891  1.000000  0.050000
  1  209  303  2  10  2737.641233  4915.390000  0.000891  1.000000  0.050000
  1  209  302  2  11  466.766891  4913.970000  0.000891  1.000000  0.050000
  1  208  302  2  12  2453.644440  4912.670000  0.000891  1.000000  0.050000
  1  208  301  2  13  3774.339636  4909.890000  0.000891  1.000000  0.050000
  1  208  300  2  14  2854.759656  4906.940000  0.000891  1.000000  0.050000
  1  208  299  2  15  2379.878647  4904.610000  0.000891  1.000000  0.050000
  1  207  298  3  1  1536.869510  4911.930000  0.002393  1.000000  0.050000
  1  208  298  3  2  1817.473342  4907.920000  0.002393  1.000000  0.050000
  1  208  299  3  3  917.387248  4904.650000  0.002393  1.000000  0.050000
  1  208  299  4  1  470.667437  4903.100000  0.001919  1.000000  0.050000
  1  208  298  4  2  850.983926  4901.830000  0.001919  1.000000  0.050000
  1  209  298  4  3  1631.598878  4899.450000  0.001919  1.000000  0.050000
  1  209  297  4  4  2001.268411  4895.960000  0.001919  1.000000  0.050000
  1  209  296  5  1  1963.474172  4899.610000  0.004013  1.000000  0.050000
  1  209  297  5  2  406.127963  4894.850000  0.004013  1.000000  0.050000
  1  209  297  6  1  345.339798  4894.030000  0.000100  1.000000  0.050000
  1  209  296  6  2  1072.645184  4894.010000  0.000100  1.000000  0.050000
  1  210  296  6  3  1310.733197  4893.970000  0.000100  1.000000  0.050000
  1  210  295  6  4  2290.178407  4893.910000  0.000100  1.000000  0.050000
  1  210  294  6  5  1831.525796  4893.840000  0.000100  1.000000  0.050000
  1  211  294  6  6  715.488713  4893.790000  0.000100  1.000000  0.050000
  1  211  293  6  7  2054.132301  4893.750000  0.000100  1.000000  0.050000
  1  210  292  7  1  2702.661248  4912.770000  0.005863  1.000000  0.050000
  1  211  293  7  2  1899.391075  4899.280000  0.005863  1.000000  0.050000
  1  211  293  8  1  359.499947  4893.490000  0.001239  1.000000  0.050000
  1  211  292  8  2  2419.857187  4891.770000  0.001239  1.000000  0.050000
  1  211  291  8  3  907.655586  4889.700000  0.001239  1.000000  0.050000
  1  212  291  8  4  2372.678705  4887.670000  0.001239  1.000000  0.050000
  1  213  291  8  5  1489.518215  4885.280000  0.001239  1.000000  0.050000
  1  213  290  8  6  1110.980057  4883.670000  0.001239  1.000000  0.050000
  1  214  290  8  7  2320.382188  4881.540000  0.001239  1.000000  0.050000
  1  215  290  8  8  1436.051360  4879.210000  0.001239  1.000000  0.050000
  1  215  289  8  9  2018.596410  4877.070000  0.001239  1.000000  0.050000
  1  216  289  8  10  1203.566663  4875.080000  0.001239  1.000000  0.050000
  1  216  288  8  11  2019.940739  4873.080000  0.001239  1.000000  0.050000
  1  217  288  8  12  3041.907683  4869.940000  0.001239  1.000000  0.050000
  1  218  288  8  13  967.510067  4867.460000  0.001239  1.000000  0.050000
  1  218  287  8  14  1286.228403  4866.060000  0.001239  1.000000  0.050000
  1  219  287  8  15  2099.712319  4863.960000  0.001239  1.000000  0.050000
  1  220  287  8  16  2070.926930  4861.380000  0.001239  1.000000  0.050000
  1  221  287  8  17  2425.264348  4858.590000  0.001239  1.000000  0.050000
  1  222  287  8  18  1740.311684  4856.010000  0.001239  1.000000  0.050000
  1  222  286  8  19  584.839206  4854.570000  0.001239  1.000000  0.050000
  1  223  286  8  20  1274.567973  4853.420000  0.001239  1.000000  0.050000
  1  223  286  9  1  917.001440  4852.410000  0.000478  1.000000  0.050000
  1  224  286  9  2  1631.650987  4851.800000  0.000478  1.000000  0.050000
  1  224  285  9  3  1687.823928  4851.010000  0.000478  1.000000  0.050000
  1  225  285  9  4  1749.345185  4850.180000  0.000478  1.000000  0.050000
  1  225  284  9  5  426.933976  4849.660000  0.000478  1.000000  0.050000
  1  226  284  9  6  2160.382681  4849.040000  0.000478  1.000000  0.050000
  1  226  283  9  7  2284.922312  4847.980000  0.000478  1.000000  0.050000
  1  226  282  9  8  506.803609  4847.310000  0.000478  1.000000  0.050000
  1  227  282  9  9  2166.535662  4846.670000  0.000478  1.000000  0.050000
  1  228  282  9  10  2117.231053  4845.650000  0.000478  1.000000  0.050000
  1  228  281  9  11  807.414595  4844.950000  0.000478  1.000000  0.050000
  1  229  281  9  12  1012.169555  4844.510000  0.000478  1.000000  0.050000
  1  229  282  9  13  1820.201666  4843.840000  0.000478  1.000000  0.050000
  1  230  282  9  14  650.715624  4843.250000  0.000478  1.000000  0.050000
  1  270  292  10  1  373.156355  5172.460000  0.002863  1.000000  0.050000
  1  269  292  10  2  742.875801  5170.860000  0.002863  1.000000  0.050000
  1  269  293  10  3  1662.949260  5167.410000  0.002863  1.000000  0.050000
  1  268  293  10  4  2374.535136  5161.630000  0.002863  1.000000  0.050000
  1  267  293  10  5  388.820264  5157.680000  0.002863  1.000000  0.050000
  1  267  292  10  6  1991.304691  5154.270000  0.002863  1.000000  0.050000
  1  266  292  10  7  2495.783760  5147.850000  0.002863  1.000000  0.050000
  1  265  292  10  8  2516.880177  5140.670000  0.002863  1.000000  0.050000
  1  264  292  10  9  579.490647  5136.240000  0.002863  1.000000  0.050000
  1  264  291  10  10  1784.120897  5132.860000  0.002863  1.000000  0.050000
  1  263  291  10  11  2074.248490  5127.330000  0.002863  1.000000  0.050000
  1  262  291  10  12  1613.659910  5122.050000  0.002863  1.000000  0.050000
  1  262  292  10  13  708.171403  5118.730000  0.002863  1.000000  0.050000
  1  261  292  10  14  494.959583  5117.010000  0.002863  1.000000  0.050000
  1  261  291  10  15  273.211206  5115.910000  0.002863  1.000000  0.050000
  1  261  292  10  16  1768.966058  5112.980000  0.002863  1.000000  0.050000
  1  260  292  10  17  2949.495522  5106.230000  0.002863  1.000000  0.050000
  1  259  292  10  18  1038.243643  5100.520000  0.002863  1.000000  0.050000
  1  259  291  10  19  1989.871563  5096.190000  0.002863  1.000000  0.050000
  1  258  291  10  20  2708.116058  5089.460000  0.002863  1.000000  0.050000
  1  257  291  10  21  2964.684096  5081.340000  0.002863  1.000000  0.050000
  1  256  291  10  22  2766.274341  5073.140000  0.002863  1.000000  0.050000
  1  255  291  10  23  2531.138036  5065.550000  0.002863  1.000000  0.050000
  1  255  291  10  24  142.860113  5061.730000  0.002863  1.000000  0.050000
  1  255  292  10  25  1329.662830  5059.620000  0.002863  1.000000  0.050000
  1  254  292  10  26  218.885218  5057.400000  0.002863  1.000000  0.050000
  1  255  292  10  27  532.705088  5056.330000  0.002863  1.000000  0.050000
  1  254  292  10  28  1259.957696  5053.760000  0.002863  1.000000  0.050000
  1  254  293  10  29  102.803924  5051.810000  0.002863  1.000000  0.050000
  1  254  292  10  30  221.182833  5051.340000  0.002863  1.000000  0.050000
  1  254  293  10  31  2358.543143  5047.650000  0.002863  1.000000  0.050000
  1  253  293  10  32  2405.080039  5040.830000  0.002863  1.000000  0.050000
  1  252  293  10  33  2423.714266  5033.920000  0.002863  1.000000  0.050000
  1  251  293  10  34  1253.698898  5028.660000  0.002863  1.000000  0.050000
  1  251  292  10  35  1590.783670  5024.580000  0.002863  1.000000  0.050000
  1  250  292  10  36  2308.747246  5019.000000  0.002863  1.000000  0.050000
  1  250  291  10  37  400.295510  5015.120000  0.002863  1.000000  0.050000
  1  249  291  10  38  2598.024685  5010.830000  0.002863  1.000000  0.050000
  1  248  291  10  39  2247.380099  5003.900000  0.002863  1.000000  0.050000
  1  247  291  10  40  2020.222680  4997.790000  0.002863  1.000000  0.050000
  1  246  291  10  41  2156.140828  4991.810000  0.002863  1.000000  0.050000
  1  245  291  10  42  2261.683380  4985.480000  0.002863  1.000000  0.050000
  1  244  291  10  43  2625.870685  4978.490000  0.002863  1.000000  0.050000
  1  243  291  10  44  2105.547626  4971.710000  0.002863  1.000000  0.050000
  1  242  291  10  45  2469.374426  4965.160000  0.002863  1.000000  0.050000
  1  241  291  10  46  636.658252  4960.720000  0.002863  1.000000  0.050000
  1  241  290  10  47  2141.986601  4956.740000  0.002863  1.000000  0.050000
  1  240  290  10  48  2250.913894  4950.450000  0.002863  1.000000  0.050000
  1  239  290  10  49  2406.214688  4943.790000  0.002863  1.000000  0.050000
  1  238  290  10  50  2703.770751  4936.470000  0.002863  1.000000  0.050000
  1  237  290  10  51  2897.579614  4928.450000  0.002863  1.000000  0.050000
  1  236  290  10  52  1330.035909  4922.400000  0.002863  1.000000  0.050000
  1  236  289  10  53  1653.300100  4918.130000  0.002863  1.000000  0.050000
  1  235  289  10  54  2564.333355  4912.090000  0.002863  1.000000  0.050000
  1  234  289  10  55  623.124089  4907.530000  0.002863  1.000000  0.050000
  1  234  288  10  56  1915.458291  4903.890000  0.002863  1.000000  0.050000
  1  233  288  10  57  2845.358759  4897.080000  0.002863  1.000000  0.050000
  1  232  288  10  58  1197.313519  4891.290000  0.002863  1.000000  0.050000
  1  232  287  10  59  3237.472112  4884.940000  0.002863  1.000000  0.050000
  1  232  286  10  60  2644.104363  4876.520000  0.002863  1.000000  0.050000
  1  231  285  10  61  304.805942  4872.300000  0.002863  1.000000  0.050000
  1  231  285  10  62  2762.044171  4867.910000  0.002863  1.000000  0.050000
  1  230  285  10  63  278.956311  4863.560000  0.002863  1.000000  0.050000
  1  230  284  10  64  3064.254694  4858.770000  0.002863  1.000000  0.050000
  1  230  283  10  65  2308.240693  4851.080000  0.002863  1.000000  0.050000
  1  230  282  10  66  1637.673462  4845.430000  0.002863  1.000000  0.050000
  1  230  282  11  1  1398.248048  4841.900000  0.001700  1.000000  0.050000
  1  230  281  11  2  2245.876019  4838.800000  0.001700  1.000000  0.050000
  1  230  280  11  3  968.520675  4836.070000  0.001700  1.000000  0.050000
  1  231  280  11  4  2205.309569  4833.380000  0.001700  1.000000  0.050000
  1  231  279  11  5  152.314775  4831.370000  0.001700  1.000000  0.050000
  1  232  279  11  6  104.620728  4831.150000  0.001700  1.000000  0.050000
  1  232  280  11  7  102.356150  4830.980000  0.001700  1.000000  0.050000
  1  232  279  11  8  2074.860811  4829.130000  0.001700  1.000000  0.050000
  1  233  279  11  9  2428.154435  4825.300000  0.001700  1.000000  0.050000
  1  234  279  11  10  291.313871  4822.990000  0.001700  1.000000  0.050000
  1  234  278  11  11  2098.050767  4820.960000  0.001700  1.000000  0.050000
  1  234  277  11  12  2732.664434  4816.850000  0.001700  1.000000  0.050000
  1  234  276  11  13  630.930464  4813.990000  0.001700  1.000000  0.050000
  1  234  277  11  14  735.839974  4812.830000  0.001700  1.000000  0.050000
  1  233  276  11  15  2204.751515  4810.330000  0.001700  1.000000  0.050000
  1  233  275  11  16  2041.940044  4806.720000  0.001700  1.000000  0.050000
  1  233  274  11  17  2158.932786  4803.150000  0.001700  1.000000  0.050000
  1  233  273  11  18  2039.947960  4799.590000  0.001700  1.000000  0.050000
  1  233  272  11  19  3233.095052  4795.100000  0.001700  1.000000  0.050000
  1  234  271  11  20  2410.285987  4790.310000  0.001700  1.000000  0.050000
  1  234  270  11  21  2230.068755  4786.360000  0.001700  1.000000  0.050000
  1  234  269  11  22  820.819296  4783.770000  0.001700  1.000000  0.050000
  1  234  270  11  23  430.712467  4782.710000  0.001700  1.000000  0.050000
  1  235  270  11  24  862.981410  4781.610000  0.001700  1.000000  0.050000
  1  235  269  11  25  2524.124907  4778.730000  0.001700  1.000000  0.050000
  1  234  269  11  26  2118.219058  4774.780000  0.001700  1.000000  0.050000
  1  233  268  11  27  501.023147  4772.560000  0.001700  1.000000  0.050000
  1  234  268  11  28  2873.694502  4769.690000  0.001700  1.000000  0.050000
  1  234  267  11  29  2101.398871  4765.460000  0.001700  1.000000  0.050000
  1  233  267  11  30  641.692757  4763.130000  0.001700  1.000000  0.050000
  1  233  266  11  31  652.740566  4762.030000  0.001700  1.000000  0.050000
  1  234  266  11  32  1377.798448  4760.310000  0.001700  1.000000  0.050000
  1  234  265  11  33  767.453305  4758.480000  0.001700  1.000000  0.050000
  1  233  265  12  1  379.830429  4757.620000  0.001108  1.000000  0.050000
  1  234  265  12  2  1256.818377  4756.710000  0.001108  1.000000  0.050000
  1  234  264  12  3  2077.349197  4754.870000  0.001108  1.000000  0.050000
  1  234  263  12  4  2091.670931  4752.560000  0.001108  1.000000  0.050000
  1  234  262  12  5  2058.130380  4750.260000  0.001108  1.000000  0.050000
  1  235  262  12  6  590.846359  4748.790000  0.001108  1.000000  0.050000
  1  235  261  12  7  2232.232653  4747.220000  0.001108  1.000000  0.050000
  1  236  261  12  8  571.128425  4745.670000  0.001108  1.000000  0.050000
  1  235  261  12  9  493.708943  4745.080000  0.001108  1.000000  0.050000
  1  235  260  12  10  2385.850503  4743.490000  0.001108  1.000000  0.050000
  1  235  259  12  11  2042.523807  4741.030000  0.001108  1.000000  0.050000
  1  235  258  12  12  2880.624081  4738.300000  0.001108  1.000000  0.050000
  1  235  257  12  13  2017.893317  4735.590000  0.001108  1.000000  0.050000
  1  235  256  12  14  1872.423297  4733.440000  0.001108  1.000000  0.050000
  1  234  256  12  15  635.439284  4732.050000  0.001108  1.000000  0.050000
  1  234  255  12  16  2321.227522  4730.410000  0.001108  1.000000  0.050000
  1  234  254  12  17  349.627966  4728.930000  0.001108  1.000000  0.050000
  1  235  254  12  18  1978.274674  4727.640000  0.001108  1.000000  0.050000
  1  235  253  12  19  2244.389842  4725.300000  0.001108  1.000000  0.050000
  1  235  252  12  20  302.004252  4723.890000  0.001108  1.000000  0.050000
  1  234  252  12  21  965.118550  4723.190000  0.001108  1.000000  0.050000
  1  235  252  12  22  429.209285  4722.410000  0.001108  1.000000  0.050000
  1  234  252  12  23  789.707515  4721.740000  0.001108  1.000000  0.050000
  1  234  251  12  24  2284.360136  4720.030000  0.001108  1.000000  0.050000
  1  234  250  12  25  834.191325  4718.310000  0.001108  1.000000  0.050000
  1  235  250  12  26  1328.915052  4717.110000  0.001108  1.000000  0.050000
  1  235  249  12  27  2168.136288  4715.170000  0.001108  1.000000  0.050000
  1  235  248  12  28  1737.387519  4713.010000  0.001108  1.000000  0.050000
  1  234  248  12  29  553.747947  4711.740000  0.001108  1.000000  0.050000
  1  234  247  12  30  2862.550897  4709.840000  0.001108  1.000000  0.050000
  1  234  246  12  31  2114.695281  4707.090000  0.001108  1.000000  0.050000
  1  234  245  12  32  386.501289  4705.700000  0.001108  1.000000  0.050000
  1  233  245  12  33  531.596177  4705.190000  0.001108  1.000000  0.050000
  1  233  246  12  34  988.650217  4704.350000  0.001108  1.000000  0.050000
  1  233  245  12  35  2187.761679  4702.590000  0.001108  1.000000  0.050000
  1  232  245  12  36  1840.893767  4700.360000  0.001108  1.000000  0.050000
  1  232  244  12  37  510.595609  4699.060000  0.001108  1.000000  0.050000
  1  231  244  12  38  1792.927963  4697.780000  0.001108  1.000000  0.050000
  1  232  244  12  39  390.565601  4696.570000  0.001108  1.000000  0.050000
  1  232  243  12  40  366.796008  4696.150000  0.001108  1.000000  0.050000
  1  231  243  12  41  841.040941  4695.480000  0.001108  1.000000  0.050000
  1  231  244  12  42  281.944323  4694.860000  0.001108  1.000000  0.050000
  1  231  243  12  43  1274.670773  4694.000000  0.001108  1.000000  0.050000
  1  231  243  13  1  139.571399  4693.240000  0.000783  1.000000  0.050000
  1  230  243  13  2  2385.356574  4692.250000  0.000783  1.000000  0.050000
  1  229  243  13  3  1758.479448  4690.630000  0.000783  1.000000  0.050000
  1  229  242  13  4  927.912235  4689.570000  0.000783  1.000000  0.050000
  1  228  242  13  5  3964.353622  4687.660000  0.000783  1.000000  0.050000
  1  227  242  13  6  2775.521942  4685.020000  0.000783  1.000000  0.050000
  1  226  242  13  7  3319.166978  4682.640000  0.000783  1.000000  0.050000
  1  225  242  13  8  1918.032210  4680.590000  0.000783  1.000000  0.050000
  1  225  241  13  9  943.563395  4679.470000  0.000783  1.000000  0.050000
  1  225  242  13  10  1001.568965  4678.700000  0.000783  1.000000  0.050000
  1  224  241  13  11  1296.751096  4677.810000  0.000783  1.000000  0.050000
  1  224  242  13  12  1125.028918  4676.860000  0.000783  1.000000  0.050000
  1  224  241  13  13  899.828837  4676.070000  0.000783  1.000000  0.050000
  1  223  241  13  14  1386.250536  4675.170000  0.000783  1.000000  0.050000
  1  223  242  13  15  2631.612439  4673.600000  0.000783  1.000000  0.050000
  1  222  242  13  16  5051.505209  4670.590000  0.000783  1.000000  0.050000
  1  221  242  13  17  692.067643  4668.340000  0.000783  1.000000  0.050000
  1  222  242  13  18  467.925886  4667.890000  0.000783  1.000000  0.050000
  1  221  242  13  19  2900.172750  4666.570000  0.000783  1.000000  0.050000
  1  220  242  13  20  2660.225043  4664.390000  0.000783  1.000000  0.050000
  1  220  241  13  21  893.317546  4663.000000  0.000783  1.000000  0.050000
  1  220  242  13  22  447.481385  4662.480000  0.000783  1.000000  0.050000
  1  219  242  13  23  103.357442  4662.260000  0.000783  1.000000  0.050000
  1  219  241  13  24  206.888304  4662.140000  0.000783  1.000000  0.050000
  1  220  241  13  25  132.469045  4662.010000  0.000783  1.000000  0.050000
  1  219  241  13  26  158.270303  4661.900000  0.000783  1.000000  0.050000
  1  220  241  13  27  1151.824049  4661.380000  0.000783  1.000000  0.050000
  1  219  241  13  28  3500.467709  4659.560000  0.000783  1.000000  0.050000
  1  218  241  13  29  409.725759  4658.030000  0.000783  1.000000  0.050000
  1  219  241  13  30  970.017993  4657.490000  0.000783  1.000000  0.050000
  1  218  241  13  31  2277.915749  4656.220000  0.000783  1.000000  0.050000
  1  218  240  13  32  2241.444237  4654.450000  0.000783  1.000000  0.050000
  1  217  240  13  33  2296.263896  4652.680000  0.000783  1.000000  0.050000
  1  217  239  13  34  1177.356261  4651.320000  0.000783  1.000000  0.050000
  1  216  239  13  35  2982.757233  4649.690000  0.000783  1.000000  0.050000
  1  216  239  14  1  1213.198293  4647.990000  0.000866  1.000000  0.050000
  1  215  239  14  2  2131.472734  4646.550000  0.000866  1.000000  0.050000
  1  214  239  14  3  2615.706784  4644.490000  0.000866  1.000000  0.050000
  1  213  239  14  4  2251.262264  4642.380000  0.000866  1.000000  0.050000
  1  212  239  14  5  968.540436  4640.990000  0.000866  1.000000  0.050000
  1  212  238  14  6  2808.145171  4639.350000  0.000866  1.000000  0.050000
  1  212  237  14  7  2757.644880  4636.940000  0.000866  1.000000  0.050000
  1  211  237  14  8  376.509020  4635.580000  0.000866  1.000000  0.050000
  1  211  237  15  1  954.833823  4634.940000  0.001009  1.000000  0.050000
  1  211  236  15  2  991.041413  4633.960000  0.001009  1.000000  0.050000
  1  212  237  15  3  465.308083  4633.220000  0.001009  1.000000  0.050000
  1  212  236  15  4  1790.812979  4632.080000  0.001009  1.000000  0.050000
  1  211  236  15  5  571.899209  4630.890000  0.001009  1.000000  0.050000
  1  212  236  15  6  579.336630  4630.310000  0.001009  1.000000  0.050000
  1  212  235  15  7  430.161990  4629.800000  0.001009  1.000000  0.050000
  1  211  235  15  8  852.178833  4629.150000  0.001009  1.000000  0.050000
  1  211  235  15  9  212.380253  4628.620000  0.001009  1.000000  0.050000
  1  211  235  16  1  2210.735356  4627.620000  0.000807  1.000000  0.050000
  1  211  234  16  2  3034.826356  4625.500000  0.000807  1.000000  0.050000
  1  210  234  16  3  380.756718  4624.120000  0.000807  1.000000  0.050000
  1  210  233  16  4  1754.119394  4623.260000  0.000807  1.000000  0.050000
  1  211  233  16  5  2012.520970  4621.740000  0.000807  1.000000  0.050000
  1  211  232  16  6  3179.378026  4619.650000  0.000807  1.000000  0.050000
  1  211  231  16  7  2427.155487  4617.390000  0.000807  1.000000  0.050000
  1  211  230  16  8  1597.911035  4615.760000  0.000807  1.000000  0.050000
  1  212  230  16  9  1215.579049  4614.630000  0.000807  1.000000  0.050000
  1  212  229  16  10  2110.523438  4613.290000  0.000807  1.000000  0.050000
  1  211  229  16  11  969.022997  4612.040000  0.000807  1.000000  0.050000
  1  211  228  16  12  765.998260  4611.340000  0.000807  1.000000  0.050000
  1  212  228  16  13  3686.522475  4609.550000  0.000807  1.000000  0.050000
  1  213  228  16  14  1520.049352  4607.450000  0.000807  1.000000  0.050000
  1  213  227  16  15  2387.251616  4605.870000  0.000807  1.000000  0.050000
  1  213  226  16  16  1873.008946  4604.150000  0.000807  1.000000  0.050000
  1  214  226  16  17  1231.605698  4602.900000  0.000807  1.000000  0.050000
  1  213  226  16  18  522.084103  4602.190000  0.000807  1.000000  0.050000
  1  213  225  16  19  1185.478677  4601.500000  0.000807  1.000000  0.050000
  1  214  225  16  20  1313.874286  4600.490000  0.000807  1.000000  0.050000
  1  214  224  16  21  2647.537752  4598.900000  0.000807  1.000000  0.050000
  1  214  223  16  22  2676.921102  4596.750000  0.000807  1.000000  0.050000
  1  214  222  16  23  2221.788999  4594.770000  0.000807  1.000000  0.050000
  1  215  222  16  24  885.262651  4593.520000  0.000807  1.000000  0.050000
  1  215  221  16  25  2696.812197  4592.070000  0.000807  1.000000  0.050000
  1  215  220  16  26  531.976164  4590.770000  0.000807  1.000000  0.050000
  1  216  220  16  27  2239.933015  4589.650000  0.000807  1.000000  0.050000
  1  216  219  16  28  2753.415513  4587.640000  0.000807  1.000000  0.050000
  1  216  218  16  29  1652.542420  4585.860000  0.000807  1.000000  0.050000
  1  217  218  16  30  969.362248  4584.800000  0.000807  1.000000  0.050000
  1  216  218  16  31  892.636401  4584.050000  0.000807  1.000000  0.050000
  1  216  217  16  32  3517.783535  4582.270000  0.000807  1.000000  0.050000
  1  216  216  16  33  2490.216681  4579.850000  0.000807  1.000000  0.050000
  1  216  215  16  34  2188.429085  4577.960000  0.000807  1.000000  0.050000
  1  216  214  16  35  2682.396488  4576.000000  0.000807  1.000000  0.050000
  1  216  213  16  36  1523.060094  4574.300000  0.000807  1.000000  0.050000
  1  215  213  16  37  1798.298072  4572.960000  0.000807  1.000000  0.050000
  1  215  212  16  38  382.357466  4572.080000  0.000807  1.000000  0.050000
  1  216  212  16  39  828.959414  4571.590000  0.000807  1.000000  0.050000
  1  215  212  16  40  271.290707  4571.150000  0.000807  1.000000  0.050000
  1  216  212  16  41  886.086291  4570.680000  0.000807  1.000000  0.050000
  1  215  212  16  42  127.015083  4570.270000  0.000807  1.000000  0.050000
  1  215  211  16  43  531.770836  4570.000000  0.000807  1.000000  0.050000
  1  216  211  16  44  198.865048  4569.710000  0.000807  1.000000  0.050000
  1  215  211  16  45  553.367840  4569.410000  0.000807  1.000000  0.050000
  1  216  211  16  46  560.881251  4568.960000  0.000807  1.000000  0.050000
  1  215  211  16  47  519.390620  4568.520000  0.000807  1.000000  0.050000
  1  215  210  16  48  705.371000  4568.030000  0.000807  1.000000  0.050000
  1  216  210  16  49  1756.273689  4567.030000  0.000807  1.000000  0.050000
  1  216  209  16  50  2445.962224  4565.340000  0.000807  1.000000  0.050000
  1  216  208  16  51  752.158845  4564.050000  0.000807  1.000000  0.050000
  1  217  208  16  52  1691.537988  4563.060000  0.000807  1.000000  0.050000
  1  217  207  16  53  2093.779008  4561.540000  0.000807  1.000000  0.050000
  1  218  207  16  54  201.527925  4560.610000  0.000807  1.000000  0.050000
  1  217  207  16  55  206.310715  4560.440000  0.000807  1.000000  0.050000
  1  218  207  16  56  377.632486  4560.210000  0.000807  1.000000  0.050000
  1  218  206  16  57  2266.487652  4559.140000  0.000807  1.000000  0.050000
  1  219  206  16  58  2082.691348  4557.390000  0.000807  1.000000  0.050000
  1  219  205  16  59  567.757110  4556.320000  0.000807  1.000000  0.050000
  1  220  205  16  60  1568.986008  4555.460000  0.000807  1.000000  0.050000
  1  220  204  16  61  2674.328869  4553.740000  0.000807  1.000000  0.050000
  1  221  203  16  62  2798.653853  4551.540000  0.000807  1.000000  0.050000
  1  221  202  16  63  2021.749719  4549.590000  0.000807  1.000000  0.050000
  1  221  201  16  64  2191.838999  4547.890000  0.000807  1.000000  0.050000
  1  221  200  16  65  2117.331209  4546.150000  0.000807  1.000000  0.050000
  1  221  199  16  66  1856.736264  4544.550000  0.000807  1.000000  0.050000
  1  222  199  16  67  599.569996  4543.560000  0.000807  1.000000  0.050000
  1  222  198  16  68  2721.516418  4542.220000  0.000807  1.000000  0.050000
  1  222  197  16  69  697.553927  4540.840000  0.000807  1.000000  0.050000
  1  223  197  16  70  2035.507939  4539.740000  0.000807  1.000000  0.050000
  1  223  196  16  71  2228.287481  4538.020000  0.000807  1.000000  0.050000
  1  223  195  16  72  2849.266476  4535.970000  0.000807  1.000000  0.050000
  1  223  194  16  73  2901.778123  4533.650000  0.000807  1.000000  0.050000
  1  223  193  16  74  645.426938  4532.220000  0.000807  1.000000  0.050000
  1  222  193  16  75  2187.134258  4531.070000  0.000807  1.000000  0.050000
  1  222  192  16  76  2238.875247  4529.290000  0.000807  1.000000  0.050000
  1  222  191  16  77  315.412017  4528.260000  0.000807  1.000000  0.050000
  1  223  191  16  78  2267.377179  4527.220000  0.000807  1.000000  0.050000
  1  223  190  16  79  2161.118016  4525.430000  0.000807  1.000000  0.050000
  1  223  189  16  80  2327.767189  4523.620000  0.000807  1.000000  0.050000
  1  223  188  16  81  2218.696887  4521.780000  0.000807  1.000000  0.050000
  1  223  187  16  82  2094.955982  4520.040000  0.000807  1.000000  0.050000
  1  223  186  16  83  1760.750333  4518.490000  0.000807  1.000000  0.050000
  1  223  186  16  84  1097.903566  4517.340000  0.000807  1.000000  0.050000
  1  223  185  16  85  502.890588  4516.690000  0.000807  1.000000  0.050000
  1  224  185  16  86  1285.895347  4515.970000  0.000807  1.000000  0.050000
  1  223  185  16  87  611.266317  4515.200000  0.000807  1.000000  0.050000
  1  223  184  16  88  2816.159842  4513.820000  0.000807  1.000000  0.050000
  1  222  184  16  89  701.981268  4512.400000  0.000807  1.000000  0.050000
  1  222  183  16  90  2636.509224  4511.050000  0.000807  1.000000  0.050000
  1  211  237  17  1  1808.045777  4634.560000  0.000955  1.000000  0.050000
  1  211  236  17  2  594.828248  4633.410000  0.000955  1.000000  0.050000
  1  210  236  17  3  3448.606146  4631.480000  0.000955  1.000000  0.050000
  1  210  235  17  4  1116.652536  4629.300000  0.000955  1.000000  0.050000
  1  209  235  17  5  2104.067968  4627.760000  0.000955  1.000000  0.050000
  1  209  234  17  6  3477.614524  4625.100000  0.000955  1.000000  0.050000
  1  209  233  17  7  184.953126  4623.350000  0.000955  1.000000  0.050000
  1  208  233  17  8  367.669951  4623.080000  0.000955  1.000000  0.050000
  1  209  233  17  9  448.184942  4622.690000  0.000955  1.000000  0.050000
  1  208  233  17  10  639.611122  4622.170000  0.000955  1.000000  0.050000
  1  209  233  17  11  889.137178  4621.440000  0.000955  1.000000  0.050000
  1  209  232  17  12  174.182990  4620.940000  0.000955  1.000000  0.050000
  1  209  233  17  13  209.199223  4620.750000  0.000955  1.000000  0.050000
  1  209  232  17  14  2602.534846  4619.410000  0.000955  1.000000  0.050000
  1  209  231  17  15  2749.892307  4616.860000  0.000955  1.000000  0.050000
  1  209  231  17  16  128.908022  4615.480000  0.000955  1.000000  0.050000
  1  209  230  17  17  1128.982156  4614.880000  0.000955  1.000000  0.050000
  1  208  230  17  18  1776.125752  4613.490000  0.000955  1.000000  0.050000
  1  208  229  17  19  2975.132813  4611.220000  0.000955  1.000000  0.050000
  1  209  229  17  20  169.878793  4609.720000  0.000955  1.000000  0.050000
  1  209  228  17  21  217.309292  4609.540000  0.000955  1.000000  0.050000
  1  208  228  17  22  763.832361  4609.070000  0.000955  1.000000  0.050000
  1  209  228  17  23  2063.255567  4607.720000  0.000955  1.000000  0.050000
  1  209  227  17  24  2881.693988  4605.360000  0.000955  1.000000  0.050000
  1  209  226  17  25  2511.175748  4602.780000  0.000955  1.000000  0.050000
  1  209  225  17  26  768.922197  4601.220000  0.000955  1.000000  0.050000
  1  166  248  18  1  737.323076  5027.170000  0.003393  1.000000  0.050000
  1  166  248  18  2  208.622269  5025.560000  0.003393  1.000000  0.050000
  1  166  247  18  3  2306.474814  5021.300000  0.003393  1.000000  0.050000
  1  167  247  18  4  708.842522  5016.180000  0.003393  1.000000  0.050000
  1  167  246  18  5  2635.214368  5010.510000  0.003393  1.000000  0.050000