# MODFLOW2000 Discretization File
 4  428  329  1  4  1
 0 0 0 0
    CONSTANT 2000.00                        DELTA-X or C
    CONSTANT 2000.00                        DELTA-Y or R
    OPEN/CLOSE  ..\external_files\arrays\surfs\top1.dat   1.0  (FREE)    -1     TOP of Model
    OPEN/CLOSE  ..\external_files\arrays\surfs\bot1.dat   1.0  (FREE)    -1     BOTTOM of Layer   1
    OPEN/CLOSE  ..\external_files\arrays\surfs\bot2.dat   1.0  (FREE)    -1     BOTTOM of Layer   2
    OPEN/CLOSE  ..\external_files\arrays\surfs\bot3.dat   1.0  (FREE)    -1     BOTTOM of Layer   3
    CONSTANT    300.00                                                   -1     BOTTOM of Layer   4
  1.0  1  1.20  SS
