 ZONEBUDGET version 3.01                 
 Program to compute a flow budget for subregions of a model using
 budget data from MODFLOW, the USGS Modular Ground-Water Flow Model.
 
  The cell-by-cell budget file is:
 ..\..\output\output.ss\output___hmss.cbb                                        
  Single precision budget file
          4 layers       428 rows       329 columns
 
 steady-state bladda                                                             
 
  The zone file is:
 zbud.nam                                                                        
 
 Zone Array for layer   1 will be read from file:
     ..\external_files\arrays\ibound\ib1.dat   OLD                               
