# MODFLOW2000 Discretization File
 2  100  100  1  4  1
 0 0
         0 1000.0000(10E12.4)                    0     DELTA-X or C
         0 1000.0000(10E12.4)                    0     DELTA-Y or R
         00.0000e+00(10e12.4)                   -1     TOP of Model
        29   1.00000(10e12.4)                   -1     BOTTOM of Layer   1
 -1.0000e+02 -1.0000e+02 -1.0000e+02 -1.0000e+02 -1.0000e+02 -1.0000e+02 -1.0000e+02 -1.0000e+02 -1.0000e+02 -1.0000e+02
 -1.0000e+02 -1.0000e+02 -1.0000e+02 -1.0000e+02 -1.0000e+02 -1.0000e+02 -1.0000e+02 -1.0000e+02 -1.0000e+02 -1.0000e+02
 -1.0000e+02 -1.0000e+02 -1.0000e+02 -1.0000e+02 -1.0000e+02 -1.0000e+02 -1.0000e+02 -1.0000e+02 -1.0000e+02 -1.0000e+02
 -1.0000e+02 -1.0000e+02 -1.0000e+02 -1.0000e+02 -1.0000e+02 -1.0000e+02 -1.0000e+02 -1.0000e+02 -1.0000e+02 -1.0000e+02
 -1.0000e+02 -1.0000e+02 -1.0000e+02 -1.0000e+02 -1.0000e+02 -1.0000e+02 -1.0000e+02 -1.0000e+02 -1.0000e+02 -1.0000e+02
 -1.0000e+02 -1.0000e+02 -1.0000e+02 -1.0000e+02 -1.0000e+02 -1.0000e+02 -1.0000e+02 -1.0000e+02 -1.0000e+02 -1.0000e+02
 -1.0000e+02 -1.0000e+02 -1.0000e+02 -1.0000e+02 -1.0000e+02 -1.0000e+02 -1.0000e+02 -1.0000e+02 -1.0000e+02 -1.0000e+02
 -1.0000e+02 -1.0000e+02 -1.0000e+02 -1.0000e+02 -1.0000e+02 -1.0000e+02 -1.0000e+02 -1.0000e+02 -1.0000e+02 -1.0000e+02
 -1.0000e+02 -1.0000e+02 -1.0000e+02 -1.0000e+02 -1.0000e+02 -1.0000e+02 -1.0000e+02 -1.0000e+02 -1.0000e+02 -1.0000e+02
 -1.0000e+02 -1.0000e+02 -1.0000e+02 -1.0000e+02 -1.0000e+02 -1.0000e+02 -1.0000e+02 -1.0000e+02 -1.0000e+02 -1.0000e+02
 -1.0000e+02 -1.0000e+02 -1.0000e+02 -1.0000e+02 -1.0000e+02 -1.0000e+02 -1.0000e+02 -1.0000e+02 -1.0000e+02 -1.0000e+02
 -1.0000e+02 -1.0000e+02 -1.0000e+02 -1.0000e+02 -1.0000e+02 -1.0000e+02 -1.0000e+02 -1.0000e+02 -1.0000e+02 -1.0000e+02
 -1.0000e+02 -1.0000e+02 -1.0000e+02 -1.0000e+02 -1.0000e+02 -1.0000e+02 -1.0000e+02 -1.0000e+02 -1.0000e+02 -1.0000e+02
 -1.0000e+02 -1.0000e+02 -1.0000e+02 -1.0000e+02 -1.0000e+02 -1.0000e+02 -1.0000e+02 -1.0000e+02 -1.0000e+02 -1.0000e+02
 -1.0000e+02 -1.0000e+02 -1.0000e+02 -1.0000e+02 -1.0000e+02 -1.0000e+02 -1.0000e+02 -1.0000e+02 -1.0000e+02 -1.0000e+02
 -1.0000e+02 -1.0000e+02 -1.0000e+02 -1.0000e+02 -1.0000e+02 -1.0000e+02 -1.0000e+02 -1.0000e+02 -1.0000e+02 -1.0000e+02
 -1.0000e+02 -1.0000e+02 -1.0000e+02 -1.0000e+02 -1.0000e+02 -1.0000e+02 -1.0000e+02 -1.0000e+02 -1.0000e+02 -1.0000e+02
 -1.0000e+02 -1.0000e+02 -1.0000e+02 -1.0000e+02 -1.0000e+02 -1.0000e+02 -1.0000e+02 -1.0000e+02 -1.0000e+02 -1.0000e+02
 -1.0000e+02 -1.0000e+02 -1.0000e+02 -1.0000e+02 -1.0000e+02 -1.0000e+02 -1.0000e+02 -1.0000e+02 -1.0000e+02 -1.0000e+02
 -1.0000e+02 -1.0000e+02 -1.0000e+02 -1.0000e+02 -1.0000e+02 -1.0000e+02 -1.0000e+02 -1.0000e+02 -1.0000e+02 -1.0000e+02
 -1.0000e+02 -1.0000e+02 -1.0000e+02 -1.0000e+02 -1.0000e+02 -1.0000e+02 -1.0000e+02 -1.0000e+02 -1.0000e+02 -1.0000e+02
 -1.0000e+02 -1.0000e+02 -1.0000e+02 -1.0000e+02 -1.0000e+02 -1.0000e+02 -1.0000e+02 -1.0000e+02 -1.0000e+02 -1.0000e+02
 -1.0000e+02 -1.0000e+02 -1.0000e+02 -1.0000e+02 -1.0000e+02 -1.0000e+02 -1.0000e+02 -1.0000e+02 -1.0000e+02 -1.0000e+02
 -1.0000e+02 -1.0000e+02 -1.0000e+02 -1.0000e+02 -1.0000e+02 -1.0000e+02 -1.0000e+02 -1.0000e+02 -1.0000e+02 -1.0000e+02
 -1.0000e+02 -1.0000e+02 -1.0000e+02 -1.0000e+02 -1.0000e+02 -1.0000e+02 -1.0000e+02 -1.0000e+02 -1.0000e+02 -1.0000e+02
 -1.0000e+02 -1.0000e+02 -1.0000e+02 -1.0000e+02 -1.0000e+02 -1.0000e+02 -1.0000e+02 -1.0000e+02 -1.0000e+02 -1.0000e+02
 -1.0000e+02 -1.0000e+02 -1.0000e+02 -1.0000e+02 -1.0000e+02 -1.0000e+02 -1.0000e+02 -1.0000e+02 -1.0000e+02 -1.0000e+02
 -1.0000e+02 -1.0000e+02 -1.0000e+02 -1.0000e+02 -1.0000e+02 -1.0000e+02 -1.0000e+02 -1.0000e+02 -1.0000e+02 -1.0000e+02
 -1.0000e+02 -1.0000e+02 -1.0000e+02 -1.0000e+02 -1.0000e+02 -1.0000e+02 -1.0000e+02 -1.0000e+02 -1.0000e+02 -1.0000e+02
 -1.0000e+02 -1.0000e+02 -1.0000e+02 -1.0000e+02 -1.0000e+02 -1.0000e+02 -1.0000e+02 -1.0000e+02 -1.0000e+02 -1.0000e+02
 -1.0000e+02 -1.0000e+02 -1.0000e+02 -1.0000e+02 -1.0000e+02 -1.0000e+02 -1.0000e+02 -1.0000e+02 -1.0000e+02 -1.0000e+02
 -1.0000e+02 -1.0000e+02 -1.0000e+02 -1.0000e+02 -1.0000e+02 -1.0000e+02 -1.0000e+02 -1.0000e+02 -1.0000e+02 -1.0000e+02
 -1.0000e+02 -1.0000e+02 -1.0000e+02 -1.0000e+02 -1.0000e+02 -1.0000e+02 -1.0000e+02 -1.0000e+02 -1.0000e+02 -1.0000e+02
 -1.0000e+02 -1.0000e+02 -1.0000e+02 -1.0000e+02 -1.0000e+02 -1.0000e+02 -1.0000e+02 -1.0000e+02 -1.0000e+02 -1.0000e+02
 -1.0000e+02 -1.0000e+02 -1.0000e+02 -1.0000e+02 -1.0000e+02 -1.0000e+02 -1.0000e+02 -1.0000e+02 -1.0000e+02 -1.0000e+02
 -1.0000e+02 -1.0000e+02 -1.0000e+02 -1.0000e+02 -1.0000e+02 -1.0000e+02 -1.0000e+02 -1.0000e+02 -1.0000e+02 -1.0000e+02
 -1.0000e+02 -1.0000e+02 -1.0000e+02 -1.0000e+02 -1.0000e+02 -1.0000e+02 -1.0000e+02 -1.0000e+02 -1.0000e+02 -1.0000e+02
 -1.0000e+02 -1.0000e+02 -1.0000e+02 -1.0000e+02 -1.0000e+02 -1.0000e+02 -1.0000e+02 -1.0000e+02 -1.0000e+02 -1.0000e+02
 -1.0000e+02 -1.0000e+02 -1.0000e+02 -1.0000e+02 -1.0000e+02 -1.0000e+02 -1.0000e+02 -1.0000e+02 -1.0000e+02 -1.0000e+02
 -1.0000e+02 -1.0000e+02 -1.0000e+02 -1.0000e+02 -1.0000e+02 -1.0000e+02 -1.0000e+02 -1.0000e+02 -1.0000e+02 -1.0000e+02
 -1.0000e+02 -1.0000e+02 -1.0000e+02 -1.0000e+02 -1.0000e+02 -1.0000e+02 -1.0000e+02 -1.0000e+02 -1.0000e+02 -1.0000e+02
 -1.0000e+02 -1.0000e+02 -1.0000e+02 -1.0000e+02 -1.0000e+02 -1.0000e+02 -1.0000e+02 -1.0000e+02 -1.0000e+02 -1.0000e+02
 -1.0000e+02 -1.0000e+02 -1.0000e+02 -1.0000e+02 -1.0000e+02 -1.0000e+02 -1.0000e+02 -1.0000e+02 -1.0000e+02 -1.0000e+02
 -1.0000e+02 -1.0000e+02 -1.0000e+02 -1.0000e+02 -1.0000e+02 -1.0000e+02 -1.0000e+02 -1.0000e+02 -1.0000e+02 -1.0000e+02
 -1.0000e+02 -1.0000e+02 -1.0000e+02 -1.0000e+02 -1.0000e+02 -1.0000e+02 -1.0000e+02 -1.0000e+02 -1.0000e+02 -1.0000e+02
 -1.0000e+02 -1.0000e+02 -1.0000e+02 -1.0000e+02 -1.0000e+02 -1.0000e+02 -1.0000e+02 -1.0000e+02 -1.0000e+02 -1.0000e+02
 -1.0000e+02 -1.0000e+02 -1.0000e+02 -1.0000e+02 -1.0000e+02 -1.0000e+02 -1.0000e+02 -1.0000e+02 -1.0000e+02 -1.0000e+02
 -1.0000e+02 -1.0000e+02 -1.0000e+02 -1.0000e+02 -1.0000e+02 -1.0000e+02 -1.0000e+02 -1.0000e+02 -1.0000e+02 -1.0000e+02
 -1.0000e+02 -1.0000e+02 -1.0000e+02 -1.0000e+02 -1.0000e+02 -1.0000e+02 -1.0000e+02 -1.0000e+02 -1.0000e+02 -1.0000e+02
 -1.0000e+02 -1.0000e+02 -1.0000e+02 -1.0000e+02 -1.0000e+02 -1.0000e+02 -1.0000e+02 -1.0000e+02 -1.0000e+02 -1.0000e+02
 -1.0000e+02 -1.0000e+02 -1.0000e+02 -1.0000e+02 -1.0000e+02 -1.0000e+02 -1.0000e+02 -1.0000e+02 -1.0000e+02 -1.0000e+02
 -1.0000e+02 -1.0000e+02 -1.0000e+02 -1.0000e+02 -1.0000e+02 -1.0000e+02 -1.0000e+02 -1.0000e+02 -1.0000e+02 -1.0000e+02
 -1.0000e+02 -1.0000e+02 -1.0000e+02 -1.0000e+02 -1.0000e+02 -1.0000e+02 -1.0000e+02 -1.0000e+02 -1.0000e+02 -1.0000e+02
 -1.0000e+02 -1.0000e+02 -1.0000e+02 -1.0000e+02 -1.0000e+02 -1.0000e+02 -1.0000e+02 -1.0000e+02 -1.0000e+02 -1.0000e+02
 -1.0000e+02 -1.0000e+02 -1.0000e+02 -1.0000e+02 -1.0000e+02 -1.0000e+02 -1.0000e+02 -1.0000e+02 -1.0000e+02 -1.0000e+02
 -1.0000e+02 -1.0000e+02 -1.0000e+02 -1.0000e+02 -1.0000e+02 -1.0000e+02 -1.0000e+02 -1.0000e+02 -1.0000e+02 -1.0000e+02
 -1.0000e+02 -1.0000e+02 -1.0000e+02 -1.0000e+02 -1.0000e+02 -1.0000e+02 -1.0000e+02 -1.0000e+02 -1.0000e+02 -1.0000e+02
 -1.0000e+02 -1.0000e+02 -1.0000e+02 -1.0000e+02 -1.0000e+02 -1.0000e+02 -1.0000e+02 -1.0000e+02 -1.0000e+02 -1.0000e+02
 -1.0000e+02 -1.0000e+02 -1.0000e+02 -1.0000e+02 -1.0000e+02 -1.0000e+02 -1.0000e+02 -1.0000e+02 -1.0000e+02 -1.0000e+02
 -1.0000e+02 -1.0000e+02 -1.0000e+02 -1.0000e+02 -1.0000e+02 -1.0000e+02 -1.0000e+02 -1.0000e+02 -1.0000e+02 -1.0000e+02
 -1.0000e+02 -1.0000e+02 -1.0000e+02 -1.0000e+02 -1.0000e+02 -1.0000e+02 -1.0000e+02 -1.0000e+02 -1.0000e+02 -1.0000e+02
 -1.0000e+02 -1.0000e+02 -1.0000e+02 -1.0000e+02 -1.0000e+02 -1.0000e+02 -1.0000e+02 -1.0000e+02 -1.0000e+02 -1.0000e+02
 -1.0000e+02 -1.0000e+02 -1.0000e+02 -1.0000e+02 -1.0000e+02 -1.0000e+02 -1.0000e+02 -1.0000e+02 -1.0000e+02 -1.0000e+02
 -1.0000e+02 -1.0000e+02 -1.0000e+02 -1.0000e+02 -1.0000e+02 -1.0000e+02 -1.0000e+02 -1.0000e+02 -1.0000e+02 -1.0000e+02
 -1.0000e+02 -1.0000e+02 -1.0000e+02 -1.0000e+02 -1.0000e+02 -1.0000e+02 -1.0000e+02 -1.0000e+02 -1.0000e+02 -1.0000e+02
 -1.0000e+02 -1.0000e+02 -1.0000e+02 -1.0000e+02 -1.0000e+02 -1.0000e+02 -1.0000e+02 -1.0000e+02 -1.0000e+02 -1.0000e+02
 -1.0000e+02 -1.0000e+02 -1.0000e+02 -1.0000e+02 -1.0000e+02 -1.0000e+02 -1.0000e+02 -1.0000e+02 -1.0000e+02 -1.0000e+02
 -1.0000e+02 -1.0000e+02 -1.0000e+02 -1.0000e+02 -1.0000e+02 -1.0000e+02 -1.0000e+02 -1.0000e+02 -1.0000e+02 -1.0000e+02
 -1.0000e+02 -1.0000e+02 -1.0000e+02 -1.0000e+02 -1.0000e+02 -1.0000e+02 -1.0000e+02 -1.0000e+02 -1.0000e+02 -1.0000e+02
 -1.0000e+02 -1.0000e+02 -1.0000e+02 -1.0000e+02 -1.0000e+02 -1.0000e+02 -1.0000e+02 -1.0000e+02 -1.0000e+02 -1.0000e+02
 -1.0000e+02 -1.0000e+02 -1.0000e+02 -1.0000e+02 -1.0000e+02 -1.0000e+02 -1.0000e+02 -1.0000e+02 -1.0000e+02 -1.0000e+02
 -1.0000e+02 -1.0000e+02 -1.0000e+02 -1.0000e+02 -1.0000e+02 -1.0000e+02 -1.0000e+02 -1.0000e+02 -1.0000e+02 -1.0000e+02
 -1.0000e+02 -1.0000e+02 -1.0000e+02 -1.0000e+02 -1.0000e+02 -1.0000e+02 -1.0000e+02 -1.0000e+02 -1.0000e+02 -1.0000e+02
 -1.0000e+02 -1.0000e+02 -1.0000e+02 -1.0000e+02 -1.0000e+02 -1.0000e+02 -1.0000e+02 -1.0000e+02 -1.0000e+02 -1.0000e+02
 -1.0000e+02 -1.0000e+02 -1.0000e+02 -1.0000e+02 -1.0000e+02 -1.0000e+02 -1.0000e+02 -1.0000e+02 -1.0000e+02 -1.0000e+02
 -1.0000e+02 -1.0000e+02 -1.0000e+02 -1.0000e+02 -1.0000e+02 -1.0000e+02 -1.0000e+02 -1.0000e+02 -1.0000e+02 -1.0000e+02
 -1.0000e+02 -1.0000e+02 -1.0000e+02 -1.0000e+02 -1.0000e+02 -1.0000e+02 -1.0000e+02 -1.0000e+02 -1.0000e+02 -1.0000e+02
 -1.0000e+02 -1.0000e+02 -1.0000e+02 -1.0000e+02 -1.0000e+02 -1.0000e+02 -1.0000e+02 -1.0000e+02 -1.0000e+02 -1.0000e+02
 -1.0000e+02 -1.0000e+02 -1.0000e+02 -1.0000e+02 -1.0000e+02 -1.0000e+02 -1.0000e+02 -1.0000e+02 -1.0000e+02 -1.0000e+02
 -1.0000e+02 -1.0000e+02 -1.0000e+02 -1.0000e+02 -1.0000e+02 -1.0000e+02 -1.0000e+02 -1.0000e+02 -1.0000e+02 -1.0000e+02
 -1.0000e+02 -1.0000e+02 -1.0000e+02 -1.0000e+02 -1.0000e+02 -1.0000e+02 -1.0000e+02 -1.0000e+02 -1.0000e+02 -1.0000e+02
 -1.0000e+02 -1.0000e+02 -1.0000e+02 -1.0000e+02 -1.0000e+02 -1.0000e+02 -1.0000e+02 -1.0000e+02 -1.0000e+02 -1.0000e+02
 -1.0000e+02 -1.0000e+02 -1.0000e+02 -1.0000e+02 -1.0000e+02 -1.0000e+02 -1.0000e+02 -1.0000e+02 -1.0000e+02 -1.0000e+02
 -1.0000e+02 -1.0000e+02 -1.0000e+02 -1.0000e+02 -1.0000e+02 -1.0000e+02 -1.0000e+02 -1.0000e+02 -1.0000e+02 -1.0000e+02
 -1.0000e+02 -1.0000e+02 -1.0000e+02 -1.0000e+02 -1.0000e+02 -1.0000e+02 -1.0000e+02 -1.0000e+02 -1.0000e+02 -1.0000e+02
 -1.0000e+02 -1.0000e+02 -1.0000e+02 -1.0000e+02 -1.0000e+02 -1.0000e+02 -1.0000e+02 -1.0000e+02 -1.0000e+02 -1.0000e+02
 -1.0000e+02 -1.0000e+02 -1.0000e+02 -1.0000e+02 -1.0000e+02 -1.0000e+02 -1.0000e+02 -1.0000e+02 -1.0000e+02 -1.0000e+02
 -1.0000e+02 -1.0000e+02 -1.0000e+02 -1.0000e+02 -1.0000e+02 -1.0000e+02 -1.0000e+02 -1.0000e+02 -1.0000e+02 -1.0000e+02
 -1.0000e+02 -1.0000e+02 -1.0000e+02 -1.0000e+02 -1.0000e+02 -1.0000e+02 -1.0000e+02 -1.0000e+02 -1.0000e+02 -1.0000e+02
 -1.0000e+02 -1.0000e+02 -1.0000e+02 -1.0000e+02 -1.0000e+02 -1.0000e+02 -1.0000e+02 -1.0000e+02 -1.0000e+02 -1.0000e+02
 -1.0000e+02 -1.0000e+02 -1.0000e+02 -1.0000e+02 -1.0000e+02 -1.0000e+02 -1.0000e+02 -1.0000e+02 -1.0000e+02 -1.0000e+02
 -1.0000e+02 -1.0000e+02 -1.0000e+02 -1.0000e+02 -1.0000e+02 -1.0000e+02 -1.0000e+02 -1.0000e+02 -1.0000e+02 -1.0000e+02
 -1.0000e+02 -1.0000e+02 -1.0000e+02 -1.0000e+02 -1.0000e+02 -1.0000e+02 -1.0000e+02 -1.0000e+02 -1.0000e+02 -1.0000e+02
 -1.0000e+02 -1.0000e+02 -1.0000e+02 -1.0000e+02 -1.0000e+02 -1.0000e+02 -1.0000e+02 -1.0000e+02 -1.0000e+02 -1.0000e+02
 -1.0000e+02 -1.0000e+02 -1.0000e+02 -1.0000e+02 -1.0000e+02 -1.0000e+02 -1.0000e+02 -1.0000e+02 -1.0000e+02 -1.0000e+02
 -1.0000e+02 -1.0000e+02 -1.0000e+02 -1.0000e+02 -1.0000e+02 -1.0000e+02 -1.0000e+02 -1.0000e+02 -1.0000e+02 -1.0000e+02
 -1.0000e+02 -1.0000e+02 -1.0000e+02 -1.0000e+02 -1.0000e+02 -1.0000e+02 -1.0000e+02 -1.0000e+02 -1.0000e+02 -1.0000e+02
 -1.0000e+02 -1.0000e+02 -1.0000e+02 -1.0000e+02 -1.0000e+02 -1.0000e+02 -1.0000e+02 -1.0000e+02 -1.0000e+02 -1.0000e+02
 -1.0000e+02 -1.0000e+02 -1.0000e+02 -1.0000e+02 -1.0000e+02 -1.0000e+02 -1.0000e+02 -1.0000e+02 -1.0000e+02 -1.0000e+02
 -1.0000e+02 -1.0000e+02 -1.0000e+02 -1.0000e+02 -1.0000e+02 -1.0000e+02 -1.0000e+02 -1.0000e+02 -1.0000e+02 -1.0000e+02
 -1.0000e+02 -1.0000e+02 -1.0000e+02 -1.0000e+02 -1.0000e+02 -1.0000e+02 -1.0000e+02 -1.0000e+02 -1.0000e+02 -1.0000e+02
 -1.0000e+02 -1.0000e+02 -1.0000e+02 -1.0000e+02 -1.0000e+02 -1.0000e+02 -1.0000e+02 -1.0000e+02 -1.0000e+02 -1.0000e+02
 -1.0000e+02 -1.0000e+02 -1.0000e+02 -1.0000e+02 -1.0000e+02 -1.0000e+02 -1.0000e+02 -1.0000e+02 -1.0000e+02 -1.0000e+02
 -1.0000e+02 -1.0000e+02 -1.0000e+02 -1.0000e+02 -1.0000e+02 -1.0000e+02 -1.0000e+02 -1.0000e+02 -1.0000e+02 -1.0000e+02
 -1.0000e+02 -1.0000e+02 -1.0000e+02 -1.0000e+02 -1.0000e+02 -1.0000e+02 -1.0000e+02 -1.0000e+02 -1.0000e+02 -1.0000e+02
 -1.0000e+02 -1.0000e+02 -1.0000e+02 -1.0000e+02 -1.0000e+02 -1.0000e+02 -1.0000e+02 -1.0000e+02 -1.0000e+02 -1.0000e+02
 -1.0000e+02 -1.0000e+02 -1.0000e+02 -1.0000e+02 -1.0000e+02 -1.0000e+02 -1.0000e+02 -1.0000e+02 -1.0000e+02 -1.0000e+02
 -1.0000e+02 -1.0000e+02 -1.0000e+02 -1.0000e+02 -1.0000e+02 -1.0000e+02 -1.0000e+02 -1.0000e+02 -1.0000e+02 -1.0000e+02
 -1.0000e+02 -1.0000e+02 -1.0000e+02 -1.0000e+02 -1.0000e+02 -1.0000e+02 -1.0000e+02 -1.0000e+02 -1.0000e+02 -1.0000e+02
 -1.0000e+02 -1.0000e+02 -1.0000e+02 -1.0000e+02 -1.0000e+02 -1.0000e+02 -1.0000e+02 -1.0000e+02 -1.0000e+02 -1.0000e+02
 -1.0000e+02 -1.0000e+02 -1.0000e+02 -1.0000e+02 -1.0000e+02 -1.0000e+02 -1.0000e+02 -1.0000e+02 -1.0000e+02 -1.0000e+02
 -1.0000e+02 -1.0000e+02 -1.0000e+02 -1.0000e+02 -1.0000e+02 -1.0000e+02 -1.0000e+02 -1.0000e+02 -1.0000e+02 -1.0000e+02
 -1.0000e+02 -1.0000e+02 -1.0000e+02 -1.0000e+02 -1.0000e+02 -1.0000e+02 -1.0000e+02 -1.0000e+02 -1.0000e+02 -1.0000e+02
 -1.0000e+02 -1.0000e+02 -1.0000e+02 -1.0000e+02 -1.0000e+02 -1.0000e+02 -1.0000e+02 -1.0000e+02 -1.0000e+02 -1.0000e+02
 -1.0000e+02 -1.0000e+02 -1.0000e+02 -1.0000e+02 -1.0000e+02 -1.0000e+02 -1.0000e+02 -1.0000e+02 -1.0000e+02 -1.0000e+02
 -1.0000e+02 -1.0000e+02 -1.0000e+02 -1.0000e+02 -1.0000e+02 -1.0000e+02 -1.0000e+02 -1.0000e+02 -1.0000e+02 -1.0000e+02
 -1.0000e+02 -1.0000e+02 -1.0000e+02 -1.0000e+02 -1.0000e+02 -1.0000e+02 -1.0000e+02 -1.0000e+02 -1.0000e+02 -1.0000e+02
 -1.0000e+02 -1.0000e+02 -1.0000e+02 -1.0000e+02 -1.0000e+02 -1.0000e+02 -1.0000e+02 -1.0000e+02 -1.0000e+02 -1.0000e+02
 -1.0000e+02 -1.0000e+02 -1.0000e+02 -1.0000e+02 -1.0000e+02 -1.0000e+02 -1.0000e+02 -1.0000e+02 -1.0000e+02 -1.0000e+02
 -1.0000e+02 -1.0000e+02 -1.0000e+02 -1.0000e+02 -1.0000e+02 -1.0000e+02 -1.0000e+02 -1.0000e+02 -1.0000e+02 -1.0000e+02
 -1.0000e+02 -1.0000e+02 -1.0000e+02 -1.0000e+02 -1.0000e+02 -1.0000e+02 -1.0000e+02 -1.0000e+02 -1.0000e+02 -1.0000e+02
 -1.0000e+02 -1.0000e+02 -1.0000e+02 -1.0000e+02 -1.0000e+02 -1.0000e+02 -1.0000e+02 -1.0000e+02 -1.0000e+02 -1.0000e+02
 -1.0000e+02 -1.0000e+02 -1.0000e+02 -1.0000e+02 -1.0000e+02 -1.0000e+02 -1.0000e+02 -1.0000e+02 -1.0000e+02 -1.0000e+02
 -1.0000e+02 -1.0000e+02 -1.0000e+02 -1.0000e+02 -1.0000e+02 -1.0000e+02 -1.0000e+02 -1.0000e+02 -1.0000e+02 -1.0000e+02
 -1.0000e+02 -1.0000e+02 -1.0000e+02 -1.0000e+02 -1.0000e+02 -1.0000e+02 -1.0000e+02 -1.0000e+02 -1.0000e+02 -1.0000e+02
 -1.0000e+02 -1.0000e+02 -1.0000e+02 -1.0000e+02 -1.0000e+02 -1.0000e+02 -1.0000e+02 -1.0000e+02 -1.0000e+02 -1.0000e+02
 -1.0000e+02 -1.0000e+02 -1.0000e+02 -1.0000e+02 -1.0000e+02 -1.0000e+02 -1.0000e+02 -1.0000e+02 -1.0000e+02 -1.0000e+02
 -1.0000e+02 -1.0000e+02 -1.0000e+02 -1.0000e+02 -1.0000e+02 -1.0000e+02 -1.0000e+02 -1.0000e+02 -1.0000e+02 -1.0000e+02
 -1.0000e+02 -1.0000e+02 -1.0000e+02 -1.0000e+02 -1.0000e+02 -1.0000e+02 -1.0000e+02 -1.0000e+02 -1.0000e+02 -1.0000e+02
 -1.0000e+02 -1.0000e+02 -1.0000e+02 -1.0000e+02 -1.0000e+02 -1.0000e+02 -1.0000e+02 -1.0000e+02 -1.0000e+02 -1.0000e+02
 -1.0000e+02 -1.0000e+02 -1.0000e+02 -1.0000e+02 -1.0000e+02 -1.0000e+02 -1.0000e+02 -1.0000e+02 -1.0000e+02 -1.0000e+02
 -1.0000e+02 -1.0000e+02 -1.0000e+02 -1.0000e+02 -1.0000e+02 -1.0000e+02 -1.0000e+02 -1.0000e+02 -1.0000e+02 -1.0000e+02
 -1.0000e+02 -1.0000e+02 -1.0000e+02 -1.0000e+02 -1.0000e+02 -1.0000e+02 -1.0000e+02 -1.0000e+02 -1.0000e+02 -1.0000e+02
 -1.0000e+02 -1.0000e+02 -1.0000e+02 -1.0000e+02 -1.0000e+02 -1.0000e+02 -1.0000e+02 -1.0000e+02 -1.0000e+02 -1.0000e+02
 -1.0000e+02 -1.0000e+02 -1.0000e+02 -1.0000e+02 -1.0000e+02 -1.0000e+02 -1.0000e+02 -1.0000e+02 -1.0000e+02 -1.0000e+02
 -1.0000e+02 -1.0000e+02 -1.0000e+02 -1.0000e+02 -1.0000e+02 -1.0000e+02 -1.0000e+02 -1.0000e+02 -1.0000e+02 -1.0000e+02
 -1.0000e+02 -1.0000e+02 -1.0000e+02 -1.0000e+02 -1.0000e+02 -1.0000e+02 -1.0000e+02 -1.0000e+02 -1.0000e+02 -1.0000e+02
 -1.0000e+02 -1.0000e+02 -1.0000e+02 -1.0000e+02 -1.0000e+02 -1.0000e+02 -1.0000e+02 -1.0000e+02 -1.0000e+02 -1.0000e+02
 -1.0000e+02 -1.0000e+02 -1.0000e+02 -1.0000e+02 -1.0000e+02 -1.0000e+02 -1.0000e+02 -1.0000e+02 -1.0000e+02 -1.0000e+02
 -1.0000e+02 -1.0000e+02 -1.0000e+02 -1.0000e+02 -1.0000e+02 -1.0000e+02 -1.0000e+02 -1.0000e+02 -1.0000e+02 -1.0000e+02
 -1.0000e+02 -1.0000e+02 -1.0000e+02 -1.0000e+02 -1.0000e+02 -1.0000e+02 -1.0000e+02 -1.0000e+02 -1.0000e+02 -1.0000e+02
 -1.0000e+02 -1.0000e+02 -1.0000e+02 -1.0000e+02 -1.0000e+02 -1.0000e+02 -1.0000e+02 -1.0000e+02 -1.0000e+02 -1.0000e+02
 -1.0000e+02 -1.0000e+02 -1.0000e+02 -1.0000e+02 -1.0000e+02 -1.0000e+02 -1.0000e+02 -1.0000e+02 -1.0000e+02 -1.0000e+02
 -1.0000e+02 -1.0000e+02 -1.0000e+02 -1.0000e+02 -1.0000e+02 -1.0000e+02 -1.0000e+02 -1.0000e+02 -1.0000e+02 -1.0000e+02
 -1.0000e+02 -1.0000e+02 -1.0000e+02 -1.0000e+02 -1.0000e+02 -1.0000e+02 -1.0000e+02 -1.0000e+02 -1.0000e+02 -1.0000e+02
 -1.0000e+02 -1.0000e+02 -1.0000e+02 -1.0000e+02 -1.0000e+02 -1.0000e+02 -1.0000e+02 -1.0000e+02 -1.0000e+02 -1.0000e+02
 -1.0000e+02 -1.0000e+02 -1.0000e+02 -1.0000e+02 -1.0000e+02 -1.0000e+02 -1.0000e+02 -1.0000e+02 -1.0000e+02 -1.0000e+02
 -1.0000e+02 -1.0000e+02 -1.0000e+02 -1.0000e+02 -1.0000e+02 -1.0000e+02 -1.0000e+02 -1.0000e+02 -1.0000e+02 -1.0000e+02
 -1.0000e+02 -1.0000e+02 -1.0000e+02 -1.0000e+02 -1.0000e+02 -1.0000e+02 -1.0000e+02 -1.0000e+02 -1.0000e+02 -1.0000e+02
 -1.0000e+02 -1.0000e+02 -1.0000e+02 -1.0000e+02 -1.0000e+02 -1.0000e+02 -1.0000e+02 -1.0000e+02 -1.0000e+02 -1.0000e+02
 -1.0000e+02 -1.0000e+02 -1.0000e+02 -1.0000e+02 -1.0000e+02 -1.0000e+02 -1.0000e+02 -1.0000e+02 -1.0000e+02 -1.0000e+02
 -1.0000e+02 -1.0000e+02 -1.0000e+02 -1.0000e+02 -1.0000e+02 -1.0000e+02 -1.0000e+02 -1.0000e+02 -1.0000e+02 -1.0000e+02
 -1.0000e+02 -1.0000e+02 -1.0000e+02 -1.0000e+02 -1.0000e+02 -1.0000e+02 -1.0000e+02 -1.0000e+02 -1.0000e+02 -1.0000e+02
 -1.0000e+02 -1.0000e+02 -1.0000e+02 -1.0000e+02 -1.0000e+02 -1.0000e+02 -1.0000e+02 -1.0000e+02 -1.0000e+02 -1.0000e+02
 -1.0000e+02 -1.0000e+02 -1.0000e+02 -1.0000e+02 -1.0000e+02 -1.0000e+02 -1.0000e+02 -1.0000e+02 -1.0000e+02 -1.0000e+02
 -1.0000e+02 -1.0000e+02 -1.0000e+02 -1.0000e+02 -1.0000e+02 -1.0000e+02 -1.0000e+02 -1.0000e+02 -1.0000e+02 -1.0000e+02
 -1.0000e+02 -1.0000e+02 -1.0000e+02 -1.0000e+02 -1.0000e+02 -1.0000e+02 -1.0000e+02 -1.0000e+02 -1.0000e+02 -1.0000e+02
 -1.0000e+02 -1.0000e+02 -1.0000e+02 -1.0000e+02 -1.0000e+02 -1.0000e+02 -1.0000e+02 -1.0000e+02 -1.0000e+02 -1.0000e+02
 -1.0000e+02 -1.0000e+02 -1.0000e+02 -1.0000e+02 -1.0000e+02 -1.0000e+02 -1.0000e+02 -1.0000e+02 -1.0000e+02 -1.0000e+02
 -1.0000e+02 -1.0000e+02 -1.0000e+02 -1.0000e+02 -1.0000e+02 -1.0000e+02 -1.0000e+02 -1.0000e+02 -1.0000e+02 -1.0000e+02
 -1.0000e+02 -1.0000e+02 -1.0000e+02 -1.0000e+02 -1.0000e+02 -1.0000e+02 -1.0000e+02 -1.0000e+02 -1.0000e+02 -1.0000e+02
 -1.0000e+02 -1.0000e+02 -1.0000e+02 -1.0000e+02 -1.0000e+02 -1.0000e+02 -1.0000e+02 -1.0000e+02 -1.0000e+02 -1.0000e+02
 -1.0000e+02 -1.0000e+02 -1.0000e+02 -1.0000e+02 -1.0000e+02 -1.0000e+02 -1.0000e+02 -1.0000e+02 -1.0000e+02 -1.0000e+02
 -1.0000e+02 -1.0000e+02 -1.0000e+02 -1.0000e+02 -1.0000e+02 -1.0000e+02 -1.0000e+02 -1.0000e+02 -1.0000e+02 -1.0000e+02
 -1.0000e+02 -1.0000e+02 -1.0000e+02 -1.0000e+02 -1.0000e+02 -1.0000e+02 -1.0000e+02 -1.0000e+02 -1.0000e+02 -1.0000e+02
 -1.0000e+02 -1.0000e+02 -1.0000e+02 -1.0000e+02 -1.0000e+02 -1.0000e+02 -1.0000e+02 -1.0000e+02 -1.0000e+02 -1.0000e+02
 -1.0000e+02 -1.0000e+02 -1.0000e+02 -1.0000e+02 -1.0000e+02 -1.0000e+02 -1.0000e+02 -1.0000e+02 -1.0000e+02 -1.0000e+02
 -1.0000e+02 -1.0000e+02 -1.0000e+02 -1.0000e+02 -1.0000e+02 -1.0000e+02 -1.0000e+02 -1.0000e+02 -1.0000e+02 -1.0000e+02
 -1.0000e+02 -1.0000e+02 -1.0000e+02 -1.0000e+02 -1.0000e+02 -1.0000e+02 -1.0000e+02 -1.0000e+02 -1.0000e+02 -1.0000e+02
 -1.0000e+02 -1.0000e+02 -1.0000e+02 -1.0000e+02 -1.0000e+02 -1.0000e+02 -1.0000e+02 -1.0000e+02 -1.0000e+02 -1.0000e+02
 -1.0000e+02 -1.0000e+02 -1.0000e+02 -1.0000e+02 -1.0000e+02 -1.0000e+02 -1.0000e+02 -1.0000e+02 -1.0000e+02 -1.0000e+02
 -1.0000e+02 -1.0000e+02 -1.0000e+02 -1.0000e+02 -1.0000e+02 -1.0000e+02 -1.0000e+02 -1.0000e+02 -1.0000e+02 -1.0000e+02
 -1.0000e+02 -1.0000e+02 -1.0000e+02 -1.0000e+02 -1.0000e+02 -1.0000e+02 -1.0000e+02 -1.0000e+02 -1.0000e+02 -1.0000e+02
 -1.0000e+02 -1.0000e+02 -1.0000e+02 -1.0000e+02 -1.0000e+02 -1.0000e+02 -1.0000e+02 -1.0000e+02 -1.0000e+02 -1.0000e+02
 -1.0000e+02 -1.0000e+02 -1.0000e+02 -1.0000e+02 -1.0000e+02 -1.0000e+02 -1.0000e+02 -1.0000e+02 -1.0000e+02 -1.0000e+02
 -1.0000e+02 -1.0000e+02 -1.0000e+02 -1.0000e+02 -1.0000e+02 -1.0000e+02 -1.0000e+02 -1.0000e+02 -1.0000e+02 -1.0000e+02
 -1.0000e+02 -1.0000e+02 -1.0000e+02 -1.0000e+02 -1.0000e+02 -1.0000e+02 -1.0000e+02 -1.0000e+02 -1.0000e+02 -1.0000e+02
 -1.0000e+02 -1.0000e+02 -1.0000e+02 -1.0000e+02 -1.0000e+02 -1.0000e+02 -1.0000e+02 -1.0000e+02 -1.0000e+02 -1.0000e+02
 -1.0000e+02 -1.0000e+02 -1.0000e+02 -1.0000e+02 -1.0000e+02 -1.0000e+02 -1.0000e+02 -1.0000e+02 -1.0000e+02 -1.0000e+02
 -1.0000e+02 -1.0000e+02 -1.0000e+02 -1.0000e+02 -1.0000e+02 -1.0000e+02 -1.0000e+02 -1.0000e+02 -1.0000e+02 -1.0000e+02
 -1.0000e+02 -1.0000e+02 -1.0000e+02 -1.0000e+02 -1.0000e+02 -1.0000e+02 -1.0000e+02 -1.0000e+02 -1.0000e+02 -1.0000e+02
 -1.0000e+02 -1.0000e+02 -1.0000e+02 -1.0000e+02 -1.0000e+02 -1.0000e+02 -1.0000e+02 -1.0000e+02 -1.0000e+02 -1.0000e+02
 -1.0000e+02 -1.0000e+02 -1.0000e+02 -1.0000e+02 -1.0000e+02 -1.0000e+02 -1.0000e+02 -1.0000e+02 -1.0000e+02 -1.0000e+02
 -1.0000e+02 -1.0000e+02 -1.0000e+02 -1.0000e+02 -1.0000e+02 -1.0000e+02 -1.0000e+02 -1.0000e+02 -1.0000e+02 -1.0000e+02
 -1.0000e+02 -1.0000e+02 -1.0000e+02 -1.0000e+02 -1.0000e+02 -1.0000e+02 -1.0000e+02 -1.0000e+02 -1.0000e+02 -1.0000e+02
 -1.0000e+02 -1.0000e+02 -1.0000e+02 -1.0000e+02 -1.0000e+02 -1.0000e+02 -1.0000e+02 -1.0000e+02 -1.0000e+02 -1.0000e+02
 -1.0000e+02 -1.0000e+02 -1.0000e+02 -1.0000e+02 -1.0000e+02 -1.0000e+02 -1.0000e+02 -1.0000e+02 -1.0000e+02 -1.0000e+02
 -1.0000e+02 -1.0000e+02 -1.0000e+02 -1.0000e+02 -1.0000e+02 -1.0000e+02 -1.0000e+02 -1.0000e+02 -1.0000e+02 -1.0000e+02
 -1.0000e+02 -1.0000e+02 -1.0000e+02 -1.0000e+02 -1.0000e+02 -1.0000e+02 -1.0000e+02 -1.0000e+02 -1.0000e+02 -1.0000e+02
 -1.0000e+02 -1.0000e+02 -1.0000e+02 -1.0000e+02 -1.0000e+02 -1.0000e+02 -1.0000e+02 -1.0000e+02 -1.0000e+02 -1.0000e+02
 -1.0000e+02 -1.0000e+02 -1.0000e+02 -1.0000e+02 -1.0000e+02 -1.0000e+02 -1.0000e+02 -1.0000e+02 -1.0000e+02 -1.0000e+02
 -1.0000e+02 -1.0000e+02 -1.0000e+02 -1.0000e+02 -1.0000e+02 -1.0000e+02 -1.0000e+02 -1.0000e+02 -1.0000e+02 -1.0000e+02
 -1.0000e+02 -1.0000e+02 -1.0000e+02 -1.0000e+02 -1.0000e+02 -1.0000e+02 -1.0000e+02 -1.0000e+02 -1.0000e+02 -1.0000e+02
 -1.0000e+02 -1.0000e+02 -1.0000e+02 -1.0000e+02 -1.0000e+02 -1.0000e+02 -1.0000e+02 -1.0000e+02 -1.0000e+02 -1.0000e+02
 -1.0000e+02 -1.0000e+02 -1.0000e+02 -1.0000e+02 -1.0000e+02 -1.0000e+02 -1.0000e+02 -1.0000e+02 -1.0000e+02 -1.0000e+02
 -1.0000e+02 -1.0000e+02 -1.0000e+02 -1.0000e+02 -1.0000e+02 -1.0000e+02 -1.0000e+02 -1.0000e+02 -1.0000e+02 -1.0000e+02
 -1.0000e+02 -1.0000e+02 -1.0000e+02 -1.0000e+02 -1.0000e+02 -1.0000e+02 -1.0000e+02 -1.0000e+02 -1.0000e+02 -1.0000e+02
 -1.0000e+02 -1.0000e+02 -1.0000e+02 -1.0000e+02 -1.0000e+02 -1.0000e+02 -1.0000e+02 -1.0000e+02 -1.0000e+02 -1.0000e+02
 -1.0000e+02 -1.0000e+02 -1.0000e+02 -1.0000e+02 -1.0000e+02 -1.0000e+02 -1.0000e+02 -1.0000e+02 -1.0000e+02 -1.0000e+02
 -1.0000e+02 -1.0000e+02 -1.0000e+02 -1.0000e+02 -1.0000e+02 -1.0000e+02 -1.0000e+02 -1.0000e+02 -1.0000e+02 -1.0000e+02
 -1.0000e+02 -1.0000e+02 -1.0000e+02 -1.0000e+02 -1.0000e+02 -1.0000e+02 -1.0000e+02 -1.0000e+02 -1.0000e+02 -1.0000e+02
 -1.0000e+02 -1.0000e+02 -1.0000e+02 -1.0000e+02 -1.0000e+02 -1.0000e+02 -1.0000e+02 -1.0000e+02 -1.0000e+02 -1.0000e+02
 -1.0000e+02 -1.0000e+02 -1.0000e+02 -1.0000e+02 -1.0000e+02 -1.0000e+02 -1.0000e+02 -1.0000e+02 -1.0000e+02 -1.0000e+02
 -1.0000e+02 -1.0000e+02 -1.0000e+02 -1.0000e+02 -1.0000e+02 -1.0000e+02 -1.0000e+02 -1.0000e+02 -1.0000e+02 -1.0000e+02
 -1.0000e+02 -1.0000e+02 -1.0000e+02 -1.0000e+02 -1.0000e+02 -1.0000e+02 -1.0000e+02 -1.0000e+02 -1.0000e+02 -1.0000e+02
 -1.0000e+02 -1.0000e+02 -1.0000e+02 -1.0000e+02 -1.0000e+02 -1.0000e+02 -1.0000e+02 -1.0000e+02 -1.0000e+02 -1.0000e+02
 -1.0000e+02 -1.0000e+02 -1.0000e+02 -1.0000e+02 -1.0000e+02 -1.0000e+02 -1.0000e+02 -1.0000e+02 -1.0000e+02 -1.0000e+02
 -1.0000e+02 -1.0000e+02 -1.0000e+02 -1.0000e+02 -1.0000e+02 -1.0000e+02 -1.0000e+02 -1.0000e+02 -1.0000e+02 -1.0000e+02
 -1.0000e+02 -1.0000e+02 -1.0000e+02 -1.0000e+02 -1.0000e+02 -1.0000e+02 -1.0000e+02 -1.0000e+02 -1.0000e+02 -1.0000e+02
 -1.0000e+02 -1.0000e+02 -1.0000e+02 -1.0000e+02 -1.0000e+02 -1.0000e+02 -1.0000e+02 -1.0000e+02 -1.0000e+02 -1.0000e+02
 -1.0000e+02 -1.0000e+02 -1.0000e+02 -1.0000e+02 -1.0000e+02 -1.0000e+02 -1.0000e+02 -1.0000e+02 -1.0000e+02 -1.0000e+02
 -1.0000e+02 -1.0000e+02 -1.0000e+02 -1.0000e+02 -1.0000e+02 -1.0000e+02 -1.0000e+02 -1.0000e+02 -1.0000e+02 -1.0000e+02
 -1.0000e+02 -1.0000e+02 -1.0000e+02 -1.0000e+02 -1.0000e+02 -1.0000e+02 -1.0000e+02 -1.0000e+02 -1.0000e+02 -1.0000e+02
 -1.0000e+02 -1.0000e+02 -1.0000e+02 -1.0000e+02 -1.0000e+02 -1.0000e+02 -1.0000e+02 -1.0000e+02 -1.0000e+02 -1.0000e+02
 -1.0000e+02 -1.0000e+02 -1.0000e+02 -1.0000e+02 -1.0000e+02 -1.0000e+02 -1.0000e+02 -1.0000e+02 -1.0000e+02 -1.0000e+02
 -1.0000e+02 -1.0000e+02 -1.0000e+02 -1.0000e+02 -1.0000e+02 -1.0000e+02 -1.0000e+02 -1.0000e+02 -1.0000e+02 -1.0000e+02
 -1.0000e+02 -1.0000e+02 -1.0000e+02 -1.0000e+02 -1.0000e+02 -1.0000e+02 -1.0000e+02 -1.0000e+02 -1.0000e+02 -1.0000e+02
 -1.0000e+02 -1.0000e+02 -1.0000e+02 -1.0000e+02 -1.0000e+02 -1.0000e+02 -1.0000e+02 -1.0000e+02 -1.0000e+02 -1.0000e+02
 -1.0000e+02 -1.0000e+02 -1.0000e+02 -1.0000e+02 -1.0000e+02 -1.0000e+02 -1.0000e+02 -1.0000e+02 -1.0000e+02 -1.0000e+02
 -1.0000e+02 -1.0000e+02 -1.0000e+02 -1.0000e+02 -1.0000e+02 -1.0000e+02 -1.0000e+02 -1.0000e+02 -1.0000e+02 -1.0000e+02
 -1.0000e+02 -1.0000e+02 -1.0000e+02 -1.0000e+02 -1.0000e+02 -1.0000e+02 -1.0000e+02 -1.0000e+02 -1.0000e+02 -1.0000e+02
 -1.0000e+02 -1.0000e+02 -1.0000e+02 -1.0000e+02 -1.0000e+02 -1.0000e+02 -1.0000e+02 -1.0000e+02 -1.0000e+02 -1.0000e+02
 -1.0000e+02 -1.0000e+02 -1.0000e+02 -1.0000e+02 -1.0000e+02 -1.0000e+02 -1.0000e+02 -1.0000e+02 -1.0000e+02 -1.0000e+02
 -1.0000e+02 -1.0000e+02 -1.0000e+02 -1.0000e+02 -1.0000e+02 -1.0000e+02 -1.0000e+02 -1.0000e+02 -1.0000e+02 -1.0000e+02
 -1.0000e+02 -1.0000e+02 -1.0000e+02 -1.0000e+02 -1.0000e+02 -1.0000e+02 -1.0000e+02 -1.0000e+02 -1.0000e+02 -1.0000e+02
 -1.0000e+02 -1.0000e+02 -1.0000e+02 -1.0000e+02 -1.0000e+02 -1.0000e+02 -1.0000e+02 -1.0000e+02 -1.0000e+02 -1.0000e+02
 -1.0000e+02 -1.0000e+02 -1.0000e+02 -1.0000e+02 -1.0000e+02 -1.0000e+02 -1.0000e+02 -1.0000e+02 -1.0000e+02 -1.0000e+02
 -1.0000e+02 -1.0000e+02 -1.0000e+02 -1.0000e+02 -1.0000e+02 -1.0000e+02 -1.0000e+02 -1.0000e+02 -1.0000e+02 -1.0000e+02
 -1.0000e+02 -1.0000e+02 -1.0000e+02 -1.0000e+02 -1.0000e+02 -1.0000e+02 -1.0000e+02 -1.0000e+02 -1.0000e+02 -1.0000e+02
 -1.0000e+02 -1.0000e+02 -1.0000e+02 -1.0000e+02 -1.0000e+02 -1.0000e+02 -1.0000e+02 -1.0000e+02 -1.0000e+02 -1.0000e+02
 -1.0000e+02 -1.0000e+02 -1.0000e+02 -1.0000e+02 -1.0000e+02 -1.0000e+02 -1.0000e+02 -1.0000e+02 -1.0000e+02 -1.0000e+02
 -1.0000e+02 -1.0000e+02 -1.0000e+02 -1.0000e+02 -1.0000e+02 -1.0000e+02 -1.0000e+02 -1.0000e+02 -1.0000e+02 -1.0000e+02
 -1.0000e+02 -1.0000e+02 -1.0000e+02 -1.0000e+02 -1.0000e+02 -1.0000e+02 -1.0000e+02 -1.0000e+02 -1.0000e+02 -1.0000e+02
 -1.0000e+02 -1.0000e+02 -1.0000e+02 -1.0000e+02 -1.0000e+02 -1.0000e+02 -1.0000e+02 -1.0000e+02 -1.0000e+02 -1.0000e+02
 -1.0000e+02 -1.0000e+02 -1.0000e+02 -1.0000e+02 -1.0000e+02 -1.0000e+02 -1.0000e+02 -1.0000e+02 -1.0000e+02 -1.0000e+02
 -1.0000e+02 -1.0000e+02 -1.0000e+02 -1.0000e+02 -1.0000e+02 -1.0000e+02 -1.0000e+02 -1.0000e+02 -1.0000e+02 -1.0000e+02
 -1.0000e+02 -1.0000e+02 -1.0000e+02 -1.0000e+02 -1.0000e+02 -1.0000e+02 -1.0000e+02 -1.0000e+02 -1.0000e+02 -1.0000e+02
 -1.0000e+02 -1.0000e+02 -1.0000e+02 -1.0000e+02 -1.0000e+02 -1.0000e+02 -1.0000e+02 -1.0000e+02 -1.0000e+02 -1.0000e+02
 -1.0000e+02 -1.0000e+02 -1.0000e+02 -1.0000e+02 -1.0000e+02 -1.0000e+02 -1.0000e+02 -1.0000e+02 -1.0000e+02 -1.0000e+02
 -1.0000e+02 -1.0000e+02 -1.0000e+02 -1.0000e+02 -1.0000e+02 -1.0000e+02 -1.0000e+02 -1.0000e+02 -1.0000e+02 -1.0000e+02
 -1.0000e+02 -1.0000e+02 -1.0000e+02 -1.0000e+02 -1.0000e+02 -1.0000e+02 -1.0000e+02 -1.0000e+02 -1.0000e+02 -1.0000e+02
 -1.0000e+02 -1.0000e+02 -1.0000e+02 -1.0000e+02 -1.0000e+02 -1.0000e+02 -1.0000e+02 -1.0000e+02 -1.0000e+02 -1.0000e+02
 -1.0000e+02 -1.0000e+02 -1.0000e+02 -1.0000e+02 -1.0000e+02 -1.0000e+02 -1.0000e+02 -1.0000e+02 -1.0000e+02 -1.0000e+02
 -1.0000e+02 -1.0000e+02 -1.0000e+02 -1.0000e+02 -1.0000e+02 -1.0000e+02 -1.0000e+02 -1.0000e+02 -1.0000e+02 -1.0000e+02
 -1.0000e+02 -1.0000e+02 -1.0000e+02 -1.0000e+02 -1.0000e+02 -1.0000e+02 -1.0000e+02 -1.0000e+02 -1.0000e+02 -1.0000e+02