# Name File for MT3DMS created on 10/19/2017 by ModelMuse
LIST 16 site_2_simple.mls
FTL 10 site_2_simple.ftl
DATA 17 site_2_simple.cnf
BTN 1 site_2_simple.btn
DATA(BINARY) 201 site_2_simple_cl.ucn
DATA 601 site_2_simple_cl._mas
ADV 2 site_2_simple.adv
DSP 3 site_2_simple.dsp
SSM 4 site_2_simple.ssm
RCT 8 site_2_simple.rct
GCG 9 site_2_simple.gcg
